@<TRIPOS>MOLECULE
10gs_ligand_023
    59    60
SMALL
GAST_HUCK
****
This file was generated by PARSER (from files_GN.cpp)

@<TRIPOS>ATOM
      1 N          15.3427   12.5046   18.5285 N.4         1 MOL       0.2328
      2 CA         16.6809   12.0428   18.9531 C.3         1 MOL       0.0304
      3 C          17.5480   11.8155   17.7780 C.2         1 MOL       0.0846
      4 O          18.8444   11.4807   17.9639 O.co2       1 MOL      -0.5643
      5 CB         16.5302   10.7766   19.8619 C.3         1 MOL       0.0193
      6 CG         16.5697   11.0675   21.3984 C.3         1 MOL       0.0441
      7 CD         15.6044   10.2781   22.1459 C.2         1 MOL       0.1785
      8 OE1        15.8002    9.0784   22.2947 O.2         1 MOL      -0.3969
      9 OXT        17.1516   12.1068   16.5170 O.co2       1 MOL      -0.5643
     10 N          14.5113   10.8730   22.6099 N.am        1 MOL      -0.2648
     11 CA         13.3856   10.2889   23.2861 C.3         1 MOL       0.1400
     12 CB         12.4553    9.5603   22.2667 C.3         1 MOL       0.0361
     13 SG         10.8281    9.1744   22.9761 S.3         1 MOL      -0.1422
     14 CD          9.7890   10.4454   22.2104 C.3         1 MOL       0.0276
     15 CE         10.0964   11.8326   22.6479 C.ar        1 MOL      -0.0332
     16 CZ1         9.8835   12.2227   23.9915 C.ar        1 MOL      -0.0595
     17 CZ2        10.5587   12.8036   21.7267 C.ar        1 MOL      -0.0595
     18 CT1        10.1226   13.5473   24.4016 C.ar        1 MOL      -0.0685
     19 CT2        10.7934   14.1295   22.1358 C.ar        1 MOL      -0.0685
     20 CH         10.5726   14.5019   23.4736 C.ar        1 MOL      -0.0687
     21 C          13.8177    9.5181   24.4462 C.2         1 MOL       0.2059
     22 O          13.6302    8.3057   24.5082 O.2         1 MOL      -0.3942
     23 N          14.4429   10.1487   25.4329 N.am        1 MOL      -0.2587
     24 CA         15.0339    9.5480   26.5955 C.3         1 MOL       0.1278
     25 CB         15.3987   10.6383   27.5434 C.ar        1 MOL      -0.0049
     26 CG1        14.6830   10.8163   28.7504 C.ar        1 MOL      -0.0564
     27 CG2        16.4479   11.5407   27.2542 C.ar        1 MOL      -0.0564
     28 CD1        15.0141   11.8533   29.6392 C.ar        1 MOL      -0.0682
     29 CD2        16.8014   12.5610   28.1561 C.ar        1 MOL      -0.0682
     30 CE         16.0859   12.7159   29.3531 C.ar        1 MOL      -0.0685
     31 C          16.2106    8.7052   26.2705 C.2         1 MOL       0.0723
     32 O          17.0244    8.2764   27.2634 O.co2       1 MOL      -0.5642
     33 OXT        16.5447    8.4007   24.9903 O.co2       1 MOL      -0.5642
     34 H1         14.7546   12.6791   19.3456 H           1 MOL       0.2010
     35 H2         14.9022   11.7881   17.9493 H           1 MOL       0.2010
     36 H3         15.4253   13.3672   17.9882 H           1 MOL       0.2010
     37 H4         17.1373   12.8589   19.5192 H           1 MOL       0.1026
     38 H5         17.3230   10.0538   19.6478 H           1 MOL       0.0363
     39 H6         15.5919   10.2739   19.5939 H           1 MOL       0.0363
     40 H7         16.3909   12.1302   21.5795 H           1 MOL       0.0505
     41 H8         17.5680   10.8516   21.7888 H           1 MOL       0.0505
     42 H9         14.4452   11.8225   22.4329 H           1 MOL       0.1883
     43 H10        12.8181   11.1371   23.6727 H           1 MOL       0.0808
     44 H11        12.9153    8.6177   21.9546 H           1 MOL       0.0426
     45 H12        12.3384   10.1713   21.3678 H           1 MOL       0.0426
     46 H13         8.7528   10.2232   22.4712 H           1 MOL       0.0538
     47 H14         9.8714   10.3386   21.1257 H           1 MOL       0.0538
     48 H15         9.5398   11.5457   24.6779 H           1 MOL       0.0557
     49 H16        10.7184   12.5546   20.7476 H           1 MOL       0.0557
     50 H17         9.9548   13.8199   25.3735 H           1 MOL       0.0599
     51 H18        11.1119   14.8248   21.4574 H           1 MOL       0.0599
     52 H19        10.7307   15.4692   23.7671 H           1 MOL       0.0559
     53 H20        14.5434   11.1116   25.3405 H           1 MOL       0.1901
     54 H21        14.2908    8.8881   27.0521 H           1 MOL       0.0887
     55 H22        13.9100   10.1908   28.9810 H           1 MOL       0.0560
     56 H23        16.9768   11.4377   26.3890 H           1 MOL       0.0560
     57 H24        14.4792   11.9824   30.4991 H           1 MOL       0.0600
     58 H25        17.5844   13.1836   27.9442 H           1 MOL       0.0600
     59 H26        16.3352   13.4568   30.0092 H           1 MOL       0.0560
@<TRIPOS>BOND
     1     2     1   1
     2     2     5   1
     3     2     3   1
     4     3     4  ar
     5     3     9  ar
     6     5     6   1
     7     6     7   1
     8     7     8   2
     9     7    10  am
    10    10    11   1
    11    11    12   1
    12    11    21   1
    13    12    13   1
    14    13    14   1
    15    14    15   1
    16    15    16  ar
    17    15    17  ar
    18    16    18  ar
    19    17    19  ar
    20    18    20  ar
    21    19    20  ar
    22    21    22   2
    23    21    23  am
    24    23    24   1
    25    24    25   1
    26    24    31   1
    27    25    26  ar
    28    25    27  ar
    29    26    28  ar
    30    27    29  ar
    31    28    30  ar
    32    29    30  ar
    33    31    32  ar
    34    31    33  ar
    35     1    34   1
    36     1    35   1
    37     1    36   1
    38     2    37   1
    39     5    38   1
    40     5    39   1
    41     6    40   1
    42     6    41   1
    43    10    42   1
    44    11    43   1
    45    12    44   1
    46    12    45   1
    47    14    46   1
    48    14    47   1
    49    16    48   1
    50    17    49   1
    51    18    50   1
    52    19    51   1
    53    20    52   1
    54    23    53   1
    55    24    54   1
    56    26    55   1
    57    27    56   1
    58    28    57   1
    59    29    58   1
    60    30    59   1
@<TRIPOS>SUBSTRUCTURE
     1  MOL      2

