@<TRIPOS>MOLECULE
10gs_ligand_010
    59    60
SMALL
GAST_HUCK
****
This file was generated by PARSER (from files_GN.cpp)

@<TRIPOS>ATOM
      1 N          12.3534   13.8493   18.8609 N.4         1 MOL       0.2328
      2 CA         11.5748   12.6164   18.6561 C.3         1 MOL       0.0304
      3 C          10.3656   12.9462   17.8630 C.2         1 MOL       0.0846
      4 O          10.2143   12.4690   16.6029 O.co2       1 MOL      -0.5643
      5 CB         11.2598   11.9142   20.0225 C.3         1 MOL       0.0193
      6 CG         11.9728   10.5490   20.2561 C.3         1 MOL       0.0441
      7 CD         13.4170   10.5875   20.4471 C.2         1 MOL       0.1785
      8 OE1        14.1094   11.2228   19.6570 O.2         1 MOL      -0.3969
      9 OXT         9.4056   13.7615   18.3565 O.co2       1 MOL      -0.5643
     10 N          13.9683    9.8602   21.4155 N.am        1 MOL      -0.2648
     11 CA         15.3536    9.5845   21.7050 C.3         1 MOL       0.1400
     12 CB         16.3438   10.7975   21.6447 C.3         1 MOL       0.0361
     13 SG         17.1857   10.9376   20.0433 S.3         1 MOL      -0.1422
     14 CD         18.6021   11.9570   20.5289 C.3         1 MOL       0.0276
     15 CE         19.3321   12.4375   19.3280 C.ar        1 MOL      -0.0332
     16 CZ1        20.1588   11.5622   18.5802 C.ar        1 MOL      -0.0595
     17 CZ2        19.2200   13.7828   18.9085 C.ar        1 MOL      -0.0595
     18 CT1        20.8480   12.0246   17.4421 C.ar        1 MOL      -0.0685
     19 CT2        19.9019   14.2439   17.7680 C.ar        1 MOL      -0.0685
     20 CH         20.7170   13.3629   17.0341 C.ar        1 MOL      -0.0687
     21 C          15.4127    8.9538   23.0256 C.2         1 MOL       0.2059
     22 O          16.3659    8.2177   23.2614 O.2         1 MOL      -0.3942
     23 N          14.5849    9.3006   24.0031 N.am        1 MOL      -0.2587
     24 CA         14.5298    8.7414   25.3300 C.3         1 MOL       0.1278
     25 CB         13.1251    8.5243   25.8051 C.ar        1 MOL      -0.0049
     26 CG1        12.1317    8.0863   24.8886 C.ar        1 MOL      -0.0564
     27 CG2        12.7495    8.6363   27.1716 C.ar        1 MOL      -0.0564
     28 CD1        10.8143    7.8335   25.2998 C.ar        1 MOL      -0.0682
     29 CD2        11.4307    8.3666   27.5907 C.ar        1 MOL      -0.0682
     30 CE         10.4602    7.9812   26.6507 C.ar        1 MOL      -0.0685
     31 C          15.3660    9.6436   26.1448 C.2         1 MOL       0.0723
     32 O          14.8363   10.8107   26.5895 O.co2       1 MOL      -0.5642
     33 OXT        16.7052    9.5907   25.9956 O.co2       1 MOL      -0.5642
     34 H1         13.1249   13.6548   19.5034 H           1 MOL       0.2010
     35 H2         11.7594   14.5886   19.2529 H           1 MOL       0.2010
     36 H3         12.7345   14.1655   17.9665 H           1 MOL       0.2010
     37 H4         12.1944   11.9616   18.0411 H           1 MOL       0.1026
     38 H5         10.1870   11.7202   20.0908 H           1 MOL       0.0363
     39 H6         11.4970   12.5830   20.8567 H           1 MOL       0.0363
     40 H7         11.7522    9.8909   19.4148 H           1 MOL       0.0505
     41 H8         11.5025   10.0943   21.1328 H           1 MOL       0.0505
     42 H9         13.3257    9.3856   21.9666 H           1 MOL       0.1883
     43 H10        15.6799    8.8335   20.9703 H           1 MOL       0.0808
     44 H11        17.1297   10.6818   22.3937 H           1 MOL       0.0426
     45 H12        15.8188   11.7287   21.8526 H           1 MOL       0.0426
     46 H13        19.2777   11.3720   21.1577 H           1 MOL       0.0538
     47 H14        18.2337   12.7952   21.1251 H           1 MOL       0.0538
     48 H15        20.2646   10.5843   18.8597 H           1 MOL       0.0557
     49 H16        18.6308   14.4371   19.4280 H           1 MOL       0.0557
     50 H17        21.4469   11.3873   16.9111 H           1 MOL       0.0599
     51 H18        19.8074   15.2181   17.4732 H           1 MOL       0.0599
     52 H19        21.2204   13.7016   16.2099 H           1 MOL       0.0559
     53 H20        13.9312    9.9975   23.8137 H           1 MOL       0.1901
     54 H21        14.9957    7.7535   25.3508 H           1 MOL       0.0887
     55 H22        12.3663    7.9499   23.9021 H           1 MOL       0.0560
     56 H23        13.4355    8.9101   27.8799 H           1 MOL       0.0560
     57 H24        10.1154    7.5360   24.6141 H           1 MOL       0.0600
     58 H25        11.1777    8.4538   28.5781 H           1 MOL       0.0600
     59 H26         9.5018    7.7949   26.9500 H           1 MOL       0.0560
@<TRIPOS>BOND
     1     2     1   1
     2     2     5   1
     3     2     3   1
     4     3     4  ar
     5     3     9  ar
     6     5     6   1
     7     6     7   1
     8     7     8   2
     9     7    10  am
    10    10    11   1
    11    11    12   1
    12    11    21   1
    13    12    13   1
    14    13    14   1
    15    14    15   1
    16    15    16  ar
    17    15    17  ar
    18    16    18  ar
    19    17    19  ar
    20    18    20  ar
    21    19    20  ar
    22    21    22   2
    23    21    23  am
    24    23    24   1
    25    24    25   1
    26    24    31   1
    27    25    26  ar
    28    25    27  ar
    29    26    28  ar
    30    27    29  ar
    31    28    30  ar
    32    29    30  ar
    33    31    32  ar
    34    31    33  ar
    35     1    34   1
    36     1    35   1
    37     1    36   1
    38     2    37   1
    39     5    38   1
    40     5    39   1
    41     6    40   1
    42     6    41   1
    43    10    42   1
    44    11    43   1
    45    12    44   1
    46    12    45   1
    47    14    46   1
    48    14    47   1
    49    16    48   1
    50    17    49   1
    51    18    50   1
    52    19    51   1
    53    20    52   1
    54    23    53   1
    55    24    54   1
    56    26    55   1
    57    27    56   1
    58    28    57   1
    59    29    58   1
    60    30    59   1
@<TRIPOS>SUBSTRUCTURE
     1  MOL      2

