@<TRIPOS>MOLECULE
10gs_ligand_018
    59    60
SMALL
GAST_HUCK
****
This file was generated by PARSER (from files_GN.cpp)

@<TRIPOS>ATOM
      1 N          17.6282   13.5573   19.7477 N.4         1 MOL       0.2328
      2 CA         18.2141   12.2415   20.0638 C.3         1 MOL       0.0304
      3 C          18.3555   11.4193   18.8428 C.2         1 MOL       0.0846
      4 O          19.4377   10.6217   18.6988 O.co2       1 MOL      -0.5643
      5 CB         17.4301   11.5373   21.2073 C.3         1 MOL       0.0193
      6 CG         16.3518   10.5126   20.7362 C.3         1 MOL       0.0441
      7 CD         15.5482   10.0078   21.8341 C.2         1 MOL       0.1785
      8 OE1        15.9537    9.0055   22.4240 O.2         1 MOL      -0.3969
      9 OXT        17.2857   11.1685   18.0489 O.co2       1 MOL      -0.5643
     10 N          14.4100   10.6279   22.1489 N.am        1 MOL      -0.2648
     11 CA         13.4233   10.3742   23.1701 C.3         1 MOL       0.1400
     12 CB         12.0824    9.9107   22.4945 C.3         1 MOL       0.0361
     13 SG         10.8724   11.2679   22.3424 S.3         1 MOL      -0.1422
     14 CD         10.5313   11.1562   20.5696 C.3         1 MOL       0.0276
     15 CE         11.6328   11.7964   19.8058 C.ar        1 MOL      -0.0332
     16 CZ1        11.6243   13.1925   19.5584 C.ar        1 MOL      -0.0595
     17 CZ2        12.7072   11.0210   19.3046 C.ar        1 MOL      -0.0595
     18 CT1        12.6369   13.7901   18.7829 C.ar        1 MOL      -0.0685
     19 CT2        13.7224   11.6230   18.5277 C.ar        1 MOL      -0.0685
     20 CH         13.6875   13.0051   18.2635 C.ar        1 MOL      -0.0687
     21 C          13.8244    9.4933   24.2689 C.2         1 MOL       0.2059
     22 O          13.9373    8.2890   24.0694 O.2         1 MOL      -0.3942
     23 N          13.9993   10.0230   25.4820 N.am        1 MOL      -0.2587
     24 CA         14.4103    9.4382   26.7343 C.3         1 MOL       0.1278
     25 CB         15.1704   10.4166   27.5930 C.ar        1 MOL      -0.0049
     26 CG1        15.4263   10.1133   28.9533 C.ar        1 MOL      -0.0564
     27 CG2        15.6569   11.6534   27.0986 C.ar        1 MOL      -0.0564
     28 CD1        16.1006   11.0184   29.7912 C.ar        1 MOL      -0.0682
     29 CD2        16.3143   12.5691   27.9374 C.ar        1 MOL      -0.0682
     30 CE         16.5211   12.2633   29.2898 C.ar        1 MOL      -0.0685
     31 C          15.1720    8.1731   26.6074 C.2         1 MOL       0.0723
     32 O          16.5139    8.1771   26.4395 O.co2       1 MOL      -0.5642
     33 OXT        14.5207    6.9848   26.6041 O.co2       1 MOL      -0.5642
     34 H1         17.5747   14.1285   20.5960 H           1 MOL       0.2010
     35 H2         16.6884   13.4426   19.3570 H           1 MOL       0.2010
     36 H3         18.2226   14.0289   19.0663 H           1 MOL       0.2010
     37 H4         19.2230   12.4515   20.4288 H           1 MOL       0.1026
     38 H5         16.9440   12.3252   21.8029 H           1 MOL       0.0363
     39 H6         18.1469   11.0280   21.8650 H           1 MOL       0.0363
     40 H7         16.8617    9.6692   20.2435 H           1 MOL       0.0505
     41 H8         15.7179   10.9998   19.9820 H           1 MOL       0.0505
     42 H9         14.2298   11.4152   21.6113 H           1 MOL       0.1883
     43 H10        13.2716   11.3707   23.5997 H           1 MOL       0.0808
     44 H11        11.5839    9.1541   23.1147 H           1 MOL       0.0426
     45 H12        12.3107    9.4626   21.5094 H           1 MOL       0.0426
     46 H13         9.5981   11.6806   20.3621 H           1 MOL       0.0538
     47 H14        10.3828   10.1147   20.2705 H           1 MOL       0.0538
     48 H15        10.8719   13.7765   19.9314 H           1 MOL       0.0557
     49 H16        12.7764   10.0192   19.5326 H           1 MOL       0.0557
     50 H17        12.6138   14.7963   18.5981 H           1 MOL       0.0599
     51 H18        14.4940   11.0529   18.1526 H           1 MOL       0.0599
     52 H19        14.4211   13.4447   17.6976 H           1 MOL       0.0559
     53 H20        13.8050   10.9720   25.5445 H           1 MOL       0.1901
     54 H21        13.4739    9.2188   27.2513 H           1 MOL       0.0887
     55 H22        15.1133    9.2223   29.3490 H           1 MOL       0.0560
     56 H23        15.5274   11.9133   26.1182 H           1 MOL       0.0560
     57 H24        16.2838   10.7803   30.7676 H           1 MOL       0.0600
     58 H25        16.6417   13.4601   27.5630 H           1 MOL       0.0600
     59 H26        16.9805   12.9350   29.9038 H           1 MOL       0.0560
@<TRIPOS>BOND
     1     2     1   1
     2     2     5   1
     3     2     3   1
     4     3     4  ar
     5     3     9  ar
     6     5     6   1
     7     6     7   1
     8     7     8   2
     9     7    10  am
    10    10    11   1
    11    11    12   1
    12    11    21   1
    13    12    13   1
    14    13    14   1
    15    14    15   1
    16    15    16  ar
    17    15    17  ar
    18    16    18  ar
    19    17    19  ar
    20    18    20  ar
    21    19    20  ar
    22    21    22   2
    23    21    23  am
    24    23    24   1
    25    24    25   1
    26    24    31   1
    27    25    26  ar
    28    25    27  ar
    29    26    28  ar
    30    27    29  ar
    31    28    30  ar
    32    29    30  ar
    33    31    32  ar
    34    31    33  ar
    35     1    34   1
    36     1    35   1
    37     1    36   1
    38     2    37   1
    39     5    38   1
    40     5    39   1
    41     6    40   1
    42     6    41   1
    43    10    42   1
    44    11    43   1
    45    12    44   1
    46    12    45   1
    47    14    46   1
    48    14    47   1
    49    16    48   1
    50    17    49   1
    51    18    50   1
    52    19    51   1
    53    20    52   1
    54    23    53   1
    55    24    54   1
    56    26    55   1
    57    27    56   1
    58    28    57   1
    59    29    58   1
    60    30    59   1
@<TRIPOS>SUBSTRUCTURE
     1  MOL      2

