@<TRIPOS>MOLECULE
10gs_ligand_025
    59    60
SMALL
GAST_HUCK
****
This file was generated by PARSER (from files_GN.cpp)

@<TRIPOS>ATOM
      1 N          14.2339   13.5169   18.1682 N.4         1 MOL       0.2328
      2 CA         14.7031   12.1259   18.0793 C.3         1 MOL       0.0304
      3 C          14.5985   11.6466   16.6841 C.2         1 MOL       0.0846
      4 O          15.7086   11.2915   15.9946 O.co2       1 MOL      -0.5643
      5 CB         13.9846   11.1946   19.1036 C.3         1 MOL       0.0193
      6 CG         12.4597   11.4483   19.2796 C.3         1 MOL       0.0441
      7 CD         11.8996   10.6776   20.3711 C.2         1 MOL       0.1785
      8 OE1        11.3205    9.6197   20.1396 O.2         1 MOL      -0.3969
      9 OXT        13.4115   11.6177   16.0312 O.co2       1 MOL      -0.5643
     10 N          11.9300   11.2060   21.5929 N.am        1 MOL      -0.2648
     11 CA         11.2989   10.7292   22.7873 C.3         1 MOL       0.1400
     12 CB          9.7871   10.4135   22.5195 C.3         1 MOL       0.0361
     13 SG          8.6229   11.1396   23.7129 S.3         1 MOL      -0.1422
     14 CD          8.9860   12.9160   23.5244 C.3         1 MOL       0.0276
     15 CE          9.8723   13.4411   24.5929 C.ar        1 MOL      -0.0332
     16 CZ1        11.1705   13.9240   24.3024 C.ar        1 MOL      -0.0595
     17 CZ2         9.4088   13.5028   25.9292 C.ar        1 MOL      -0.0595
     18 CT1        11.9907   14.4268   25.3245 C.ar        1 MOL      -0.0685
     19 CT2        10.2231   14.0127   26.9497 C.ar        1 MOL      -0.0685
     20 CH         11.5262   14.4586   26.6548 C.ar        1 MOL      -0.0687
     21 C          12.1117    9.7126   23.4431 C.2         1 MOL       0.2059
     22 O          11.6764    8.5804   23.6433 O.2         1 MOL      -0.3942
     23 N          13.3248   10.0820   23.8463 N.am        1 MOL      -0.2587
     24 CA         14.2784    9.3246   24.6091 C.3         1 MOL       0.1278
     25 CB         14.5673   10.0496   25.8875 C.ar        1 MOL      -0.0049
     26 CG1        14.5034    9.3669   27.1250 C.ar        1 MOL      -0.0564
     27 CG2        14.8990   11.4265   25.8921 C.ar        1 MOL      -0.0564
     28 CD1        14.7893   10.0328   28.3293 C.ar        1 MOL      -0.0682
     29 CD2        15.1722   12.0927   27.1010 C.ar        1 MOL      -0.0682
     30 CE         15.1191   11.3956   28.3185 C.ar        1 MOL      -0.0685
     31 C          15.5332    9.1094   23.8496 C.2         1 MOL       0.0723
     32 O          15.5872    9.2272   22.4976 O.co2       1 MOL      -0.5642
     33 OXT        16.6311    8.6554   24.4910 O.co2       1 MOL      -0.5642
     34 H1         14.2944   13.8234   19.1389 H           1 MOL       0.2010
     35 H2         13.2645   13.5855   17.8602 H           1 MOL       0.2010
     36 H3         14.8087   14.1182   17.5739 H           1 MOL       0.2010
     37 H4         15.7623   12.1434   18.3494 H           1 MOL       0.1026
     38 H5         14.4786   11.3155   20.0731 H           1 MOL       0.0363
     39 H6         14.1336   10.1506   18.8046 H           1 MOL       0.0363
     40 H7         11.9461   11.1968   18.3470 H           1 MOL       0.0505
     41 H8         12.2788   12.5146   19.4611 H           1 MOL       0.0505
     42 H9         12.3832   12.0618   21.6753 H           1 MOL       0.1883
     43 H10        11.3091   11.5918   23.4585 H           1 MOL       0.0808
     44 H11         9.6296    9.3282   22.5039 H           1 MOL       0.0426
     45 H12         9.4938   10.7867   21.5325 H           1 MOL       0.0426
     46 H13         8.0285   13.4455   23.5634 H           1 MOL       0.0538
     47 H14         9.3986   13.1146   22.5294 H           1 MOL       0.0538
     48 H15        11.5212   13.9257   23.3469 H           1 MOL       0.0557
     49 H16         8.4623   13.1817   26.1610 H           1 MOL       0.0557
     50 H17        12.9386   14.7549   25.1100 H           1 MOL       0.0599
     51 H18         9.8852   14.0436   27.9105 H           1 MOL       0.0599
     52 H19        12.1280   14.8184   27.3978 H           1 MOL       0.0559
     53 H20        13.5878   10.9954   23.6266 H           1 MOL       0.1901
     54 H21        13.8868    8.3214   24.8176 H           1 MOL       0.0887
     55 H22        14.2752    8.3688   27.1515 H           1 MOL       0.0560
     56 H23        14.9555   11.9495   25.0159 H           1 MOL       0.0560
     57 H24        14.7452    9.5222   29.2085 H           1 MOL       0.0600
     58 H25        15.3969   13.0910   27.0962 H           1 MOL       0.0600
     59 H26        15.3223   11.8786   29.1962 H           1 MOL       0.0560
@<TRIPOS>BOND
     1     2     1   1
     2     2     5   1
     3     2     3   1
     4     3     4  ar
     5     3     9  ar
     6     5     6   1
     7     6     7   1
     8     7     8   2
     9     7    10  am
    10    10    11   1
    11    11    12   1
    12    11    21   1
    13    12    13   1
    14    13    14   1
    15    14    15   1
    16    15    16  ar
    17    15    17  ar
    18    16    18  ar
    19    17    19  ar
    20    18    20  ar
    21    19    20  ar
    22    21    22   2
    23    21    23  am
    24    23    24   1
    25    24    25   1
    26    24    31   1
    27    25    26  ar
    28    25    27  ar
    29    26    28  ar
    30    27    29  ar
    31    28    30  ar
    32    29    30  ar
    33    31    32  ar
    34    31    33  ar
    35     1    34   1
    36     1    35   1
    37     1    36   1
    38     2    37   1
    39     5    38   1
    40     5    39   1
    41     6    40   1
    42     6    41   1
    43    10    42   1
    44    11    43   1
    45    12    44   1
    46    12    45   1
    47    14    46   1
    48    14    47   1
    49    16    48   1
    50    17    49   1
    51    18    50   1
    52    19    51   1
    53    20    52   1
    54    23    53   1
    55    24    54   1
    56    26    55   1
    57    27    56   1
    58    28    57   1
    59    29    58   1
    60    30    59   1
@<TRIPOS>SUBSTRUCTURE
     1  MOL      2

