@<TRIPOS>MOLECULE
10gs_ligand_031
    59    60
SMALL
GAST_HUCK
****
This file was generated by PARSER (from files_GN.cpp)

@<TRIPOS>ATOM
      1 N           9.7766    2.4378   22.7213 N.4         1 MOL       0.2328
      2 CA         11.2337    2.4352   22.9023 C.3         1 MOL       0.0304
      3 C          11.6598    1.1193   23.4206 C.2         1 MOL       0.0846
      4 O          12.4639    0.3224   22.6785 O.co2       1 MOL      -0.5643
      5 CB         11.7225    3.6359   23.7673 C.3         1 MOL       0.0193
      6 CG         11.0057    3.8257   25.1330 C.3         1 MOL       0.0441
      7 CD         11.5761    4.8861   25.9434 C.2         1 MOL       0.1785
      8 OE1        12.1730    4.5805   26.9658 O.2         1 MOL      -0.3969
      9 OXT        11.1247    0.6011   24.5453 O.co2       1 MOL      -0.5643
     10 N          11.3710    6.1624   25.6214 N.am        1 MOL      -0.2648
     11 CA         11.7776    7.3466   26.3402 C.3         1 MOL       0.1400
     12 CB         11.1568    7.4819   27.7605 C.3         1 MOL       0.0361
     13 SG          9.3421    7.5020   27.7250 S.3         1 MOL      -0.1422
     14 CD          8.9572    5.8228   28.2860 C.3         1 MOL       0.0276
     15 CE          7.6507    5.3668   27.7561 C.ar        1 MOL      -0.0332
     16 CZ1         6.5843    5.0126   28.6161 C.ar        1 MOL      -0.0595
     17 CZ2         7.4692    5.2127   26.3571 C.ar        1 MOL      -0.0595
     18 CT1         5.3847    4.4906   28.0964 C.ar        1 MOL      -0.0685
     19 CT2         6.2806    4.6611   25.8400 C.ar        1 MOL      -0.0685
     20 CH          5.2429    4.2963   26.7118 C.ar        1 MOL      -0.0687
     21 C          13.2309    7.5415   26.3765 C.2         1 MOL       0.2059
     22 O          13.9708    6.5842   26.5699 O.2         1 MOL      -0.3942
     23 N          13.7409    8.7641   26.2550 N.am        1 MOL      -0.2587
     24 CA         15.1333    9.1258   26.2721 C.3         1 MOL       0.1278
     25 CB         15.3380   10.2993   27.1778 C.ar        1 MOL      -0.0049
     26 CG1        15.7278   10.0881   28.5228 C.ar        1 MOL      -0.0564
     27 CG2        15.1308   11.6373   26.7488 C.ar        1 MOL      -0.0564
     28 CD1        15.9521   11.1691   29.3943 C.ar        1 MOL      -0.0682
     29 CD2        15.3540   12.7209   27.6182 C.ar        1 MOL      -0.0682
     30 CE         15.7715   12.4847   28.9434 C.ar        1 MOL      -0.0685
     31 C          15.6081    9.3484   24.8803 C.2         1 MOL       0.0723
     32 O          16.7299    8.7359   24.4410 O.co2       1 MOL      -0.5642
     33 OXT        14.8046    9.9145   23.9524 O.co2       1 MOL      -0.5642
     34 H1          9.4763    3.3345   22.3337 H           1 MOL       0.2010
     35 H2          9.3136    2.2884   23.6223 H           1 MOL       0.2010
     36 H3          9.5077    1.6876   22.0799 H           1 MOL       0.2010
     37 H4         11.6714    2.5588   21.9105 H           1 MOL       0.1026
     38 H5         11.5963    4.5509   23.1822 H           1 MOL       0.0363
     39 H6         12.7915    3.5100   23.9514 H           1 MOL       0.0363
     40 H7         11.0491    2.8847   25.6874 H           1 MOL       0.0505
     41 H8          9.9496    4.0423   24.9639 H           1 MOL       0.0505
     42 H9         10.8462    6.3185   24.8179 H           1 MOL       0.1883
     43 H10        11.3660    8.1737   25.7508 H           1 MOL       0.0808
     44 H11        11.4557    8.4468   28.1845 H           1 MOL       0.0426
     45 H12        11.5303    6.7079   28.4352 H           1 MOL       0.0426
     46 H13         8.9699    5.8266   29.3773 H           1 MOL       0.0538
     47 H14         9.7154    5.1144   27.9582 H           1 MOL       0.0538
     48 H15         6.6794    5.1196   29.6263 H           1 MOL       0.0557
     49 H16         8.2043    5.4975   25.7063 H           1 MOL       0.0557
     50 H17         4.6221    4.2392   28.7255 H           1 MOL       0.0599
     51 H18         6.1801    4.5250   24.8286 H           1 MOL       0.0599
     52 H19         4.3828    3.8903   26.3349 H           1 MOL       0.0559
     53 H20        13.1133    9.4861   26.1002 H           1 MOL       0.1901
     54 H21        15.7324    8.2933   26.6603 H           1 MOL       0.0887
     55 H22        15.8568    9.1392   28.8822 H           1 MOL       0.0560
     56 H23        14.8295   11.8378   25.7951 H           1 MOL       0.0560
     57 H24        16.2520   10.9977   30.3567 H           1 MOL       0.0600
     58 H25        15.2144   13.6742   27.2884 H           1 MOL       0.0600
     59 H26        15.9384   13.2734   29.5750 H           1 MOL       0.0560
@<TRIPOS>BOND
     1     2     1   1
     2     2     5   1
     3     2     3   1
     4     3     4  ar
     5     3     9  ar
     6     5     6   1
     7     6     7   1
     8     7     8   2
     9     7    10  am
    10    10    11   1
    11    11    12   1
    12    11    21   1
    13    12    13   1
    14    13    14   1
    15    14    15   1
    16    15    16  ar
    17    15    17  ar
    18    16    18  ar
    19    17    19  ar
    20    18    20  ar
    21    19    20  ar
    22    21    22   2
    23    21    23  am
    24    23    24   1
    25    24    25   1
    26    24    31   1
    27    25    26  ar
    28    25    27  ar
    29    26    28  ar
    30    27    29  ar
    31    28    30  ar
    32    29    30  ar
    33    31    32  ar
    34    31    33  ar
    35     1    34   1
    36     1    35   1
    37     1    36   1
    38     2    37   1
    39     5    38   1
    40     5    39   1
    41     6    40   1
    42     6    41   1
    43    10    42   1
    44    11    43   1
    45    12    44   1
    46    12    45   1
    47    14    46   1
    48    14    47   1
    49    16    48   1
    50    17    49   1
    51    18    50   1
    52    19    51   1
    53    20    52   1
    54    23    53   1
    55    24    54   1
    56    26    55   1
    57    27    56   1
    58    28    57   1
    59    29    58   1
    60    30    59   1
@<TRIPOS>SUBSTRUCTURE
     1  MOL      2

