@<TRIPOS>MOLECULE
10gs_ligand_033
    59    60
SMALL
GAST_HUCK
****
This file was generated by PARSER (from files_GN.cpp)

@<TRIPOS>ATOM
      1 N           6.4310    6.7858   22.3981 N.4         1 MOL       0.2328
      2 CA          7.8606    7.0022   22.6740 C.3         1 MOL       0.0304
      3 C           8.3537    5.8591   23.4683 C.2         1 MOL       0.0846
      4 O           9.3681    5.0860   23.0154 O.co2       1 MOL      -0.5643
      5 CB          8.0902    8.3848   23.3580 C.3         1 MOL       0.0193
      6 CG          9.5510    8.9220   23.2863 C.3         1 MOL       0.0441
      7 CD         10.5265    8.1399   24.0279 C.2         1 MOL       0.1785
      8 OE1        11.2319    7.3489   23.4118 O.2         1 MOL      -0.3969
      9 OXT         7.7111    5.4617   24.5917 O.co2       1 MOL      -0.5643
     10 N          10.6640    8.3245   25.3396 N.am        1 MOL      -0.2648
     11 CA         11.5739    7.6643   26.2420 C.3         1 MOL       0.1400
     12 CB         11.2865    6.1320   26.4158 C.3         1 MOL       0.0361
     13 SG         10.3018    5.6315   27.8514 S.3         1 MOL      -0.1422
     14 CD          8.8653    6.7420   27.7628 C.3         1 MOL       0.0276
     15 CE          8.8027    7.8731   28.7374 C.ar        1 MOL      -0.0332
     16 CZ1         9.6912    8.0353   29.8333 C.ar        1 MOL      -0.0595
     17 CZ2         7.7425    8.8034   28.6024 C.ar        1 MOL      -0.0595
     18 CT1         9.5089    9.0680   30.7705 C.ar        1 MOL      -0.0685
     19 CT2         7.5657    9.8413   29.5387 C.ar        1 MOL      -0.0685
     20 CH          8.4397    9.9664   30.6329 C.ar        1 MOL      -0.0687
     21 C          12.9572    7.9625   25.8818 C.2         1 MOL       0.2059
     22 O          13.4978    7.2870   25.0154 O.2         1 MOL      -0.3942
     23 N          13.6319    8.9191   26.5093 N.am        1 MOL      -0.2587
     24 CA         15.0496    9.1479   26.4513 C.3         1 MOL       0.1278
     25 CB         15.3739   10.3080   27.3357 C.ar        1 MOL      -0.0049
     26 CG1        15.7449   10.0895   28.6863 C.ar        1 MOL      -0.0564
     27 CG2        15.2523   11.6475   26.8873 C.ar        1 MOL      -0.0564
     28 CD1        16.0176   11.1687   29.5469 C.ar        1 MOL      -0.0682
     29 CD2        15.5349   12.7248   27.7423 C.ar        1 MOL      -0.0682
     30 CE         15.9190   12.4882   29.0737 C.ar        1 MOL      -0.0685
     31 C          15.5933    9.3091   25.0739 C.2         1 MOL       0.0723
     32 O          14.8330    9.8689   24.1080 O.co2       1 MOL      -0.5642
     33 OXT        16.6602    8.5850   24.6683 O.co2       1 MOL      -0.5642
     34 H1          6.0916    7.5116   21.7674 H           1 MOL       0.2010
     35 H2          5.8996    6.8200   23.2707 H           1 MOL       0.2010
     36 H3          6.3015    5.8696   21.9598 H           1 MOL       0.2010
     37 H4          8.3678    7.0096   21.7049 H           1 MOL       0.1026
     38 H5          7.7533    8.3587   24.3954 H           1 MOL       0.0363
     39 H6          7.4674    9.1230   22.8384 H           1 MOL       0.0363
     40 H7          9.5685    9.9479   23.6668 H           1 MOL       0.0505
     41 H8          9.8448    8.9788   22.2337 H           1 MOL       0.0505
     42 H9         10.0983    9.0113   25.7346 H           1 MOL       0.1883
     43 H10        11.3955    8.1337   27.2115 H           1 MOL       0.0808
     44 H11        12.2245    5.5804   26.5228 H           1 MOL       0.0426
     45 H12        10.7892    5.7357   25.5300 H           1 MOL       0.0426
     46 H13         7.9887    6.1162   27.9384 H           1 MOL       0.0538
     47 H14         8.7778    7.1267   26.7489 H           1 MOL       0.0538
     48 H15        10.4675    7.3874   29.9847 H           1 MOL       0.0557
     49 H16         7.0782    8.7255   27.8262 H           1 MOL       0.0557
     50 H17        10.1491    9.1515   31.5588 H           1 MOL       0.0599
     51 H18         6.7860   10.4998   29.4327 H           1 MOL       0.0599
     52 H19         8.2920   10.7035   31.3253 H           1 MOL       0.0559
     53 H20        13.1390    9.4487   27.1555 H           1 MOL       0.1901
     54 H21        15.5183    8.2455   26.8687 H           1 MOL       0.0887
     55 H22        15.8082    9.1387   29.0627 H           1 MOL       0.0560
     56 H23        14.9669   11.8558   25.9310 H           1 MOL       0.0560
     57 H24        16.2849   10.9961   30.5184 H           1 MOL       0.0600
     58 H25        15.4584   13.6800   27.3937 H           1 MOL       0.0600
     59 H26        16.1203   13.2737   29.6984 H           1 MOL       0.0560
@<TRIPOS>BOND
     1     2     1   1
     2     2     5   1
     3     2     3   1
     4     3     4  ar
     5     3     9  ar
     6     5     6   1
     7     6     7   1
     8     7     8   2
     9     7    10  am
    10    10    11   1
    11    11    12   1
    12    11    21   1
    13    12    13   1
    14    13    14   1
    15    14    15   1
    16    15    16  ar
    17    15    17  ar
    18    16    18  ar
    19    17    19  ar
    20    18    20  ar
    21    19    20  ar
    22    21    22   2
    23    21    23  am
    24    23    24   1
    25    24    25   1
    26    24    31   1
    27    25    26  ar
    28    25    27  ar
    29    26    28  ar
    30    27    29  ar
    31    28    30  ar
    32    29    30  ar
    33    31    32  ar
    34    31    33  ar
    35     1    34   1
    36     1    35   1
    37     1    36   1
    38     2    37   1
    39     5    38   1
    40     5    39   1
    41     6    40   1
    42     6    41   1
    43    10    42   1
    44    11    43   1
    45    12    44   1
    46    12    45   1
    47    14    46   1
    48    14    47   1
    49    16    48   1
    50    17    49   1
    51    18    50   1
    52    19    51   1
    53    20    52   1
    54    23    53   1
    55    24    54   1
    56    26    55   1
    57    27    56   1
    58    28    57   1
    59    29    58   1
    60    30    59   1
@<TRIPOS>SUBSTRUCTURE
     1  MOL      2

