@<TRIPOS>MOLECULE
10gs_ligand_000
    59    60
SMALL
GAST_HUCK
****
This file was generated by PARSER (from files_GN.cpp)

@<TRIPOS>ATOM
      1 N          15.7452   10.0521   29.6009 N.4         1 MOL       0.2328
      2 CA         15.9693   11.2847   28.8214 C.3         1 MOL       0.0304
      3 C          14.9769   12.2907   29.2535 C.2         1 MOL       0.0846
      4 O          15.1438   12.9475   30.4297 O.co2       1 MOL      -0.5643
      5 CB         16.0332   11.0886   27.2630 C.3         1 MOL       0.0193
      6 CG         15.7838    9.6466   26.7295 C.3         1 MOL       0.0441
      7 CD         15.9673    9.5078   25.2901 C.2         1 MOL       0.1785
      8 OE1        16.6943    8.6062   24.8832 O.2         1 MOL      -0.3969
      9 OXT        13.7872   12.4176   28.6177 O.co2       1 MOL      -0.5643
     10 N          15.2699   10.2810   24.4613 N.am        1 MOL      -0.2648
     11 CA         15.3440   10.4014   23.0282 C.3         1 MOL       0.1400
     12 CB         16.5572    9.7296   22.3067 C.3         1 MOL       0.0361
     13 SG         16.8064   10.2409   20.5835 S.3         1 MOL      -0.1422
     14 CD         17.9628   11.6176   20.8097 C.3         1 MOL       0.0276
     15 CE         18.6544   11.9144   19.5315 C.ar        1 MOL      -0.0332
     16 CZ1        17.9383   12.3800   18.4073 C.ar        1 MOL      -0.0595
     17 CZ2        20.0540   11.7355   19.4132 C.ar        1 MOL      -0.0595
     18 CT1        18.6065   12.6762   17.2011 C.ar        1 MOL      -0.0685
     19 CT2        20.7242   12.0421   18.2143 C.ar        1 MOL      -0.0685
     20 CH         20.0013   12.5118   17.1079 C.ar        1 MOL      -0.0687
     21 C          14.0741    9.9536   22.4600 C.2         1 MOL       0.2059
     22 O          13.5817    8.9078   22.8756 O.2         1 MOL      -0.3942
     23 N          13.4664   10.6623   21.5135 N.am        1 MOL      -0.2587
     24 CA         12.3062   10.3184   20.7329 C.3         1 MOL       0.1278
     25 CB         11.6387   11.5470   20.1957 C.ar        1 MOL      -0.0049
     26 CG1        11.4844   12.7066   21.0012 C.ar        1 MOL      -0.0564
     27 CG2        11.1090   11.5782   18.8837 C.ar        1 MOL      -0.0564
     28 CD1        10.8383   13.8568   20.5128 C.ar        1 MOL      -0.0682
     29 CD2        10.4514   12.7285   18.3953 C.ar        1 MOL      -0.0682
     30 CE         10.3184   13.8697   19.2074 C.ar        1 MOL      -0.0685
     31 C          11.3111    9.4845   21.4591 C.2         1 MOL       0.0723
     32 O          11.3506    8.1305   21.3639 O.co2       1 MOL      -0.5642
     33 OXT        10.3681   10.0416   22.2625 O.co2       1 MOL      -0.5642
     34 H1         16.5427    9.4163   29.5278 H           1 MOL       0.2010
     35 H2         14.8970    9.5799   29.2757 H           1 MOL       0.2010
     36 H3         15.6318   10.3045   30.5869 H           1 MOL       0.2010
     37 H4         16.9466   11.6534   29.1481 H           1 MOL       0.1026
     38 H5         17.0232   11.4096   26.9293 H           1 MOL       0.0363
     39 H6         15.3209   11.7586   26.7750 H           1 MOL       0.0363
     40 H7         14.7635    9.3459   26.9823 H           1 MOL       0.0505
     41 H8         16.4725    8.9621   27.2436 H           1 MOL       0.0505
     42 H9         14.6353   10.8741   24.8839 H           1 MOL       0.1883
     43 H10        15.4435   11.4831   22.8514 H           1 MOL       0.0808
     44 H11        16.4176    8.6514   22.2977 H           1 MOL       0.0426
     45 H12        17.4676    9.9308   22.8662 H           1 MOL       0.0426
     46 H13        18.6937   11.3553   21.5790 H           1 MOL       0.0538
     47 H14        17.4162   12.4942   21.1639 H           1 MOL       0.0538
     48 H15        16.9241   12.5130   18.4573 H           1 MOL       0.0557
     49 H16        20.6039   11.3805   20.2050 H           1 MOL       0.0557
     50 H17        18.0785   13.0060   16.3892 H           1 MOL       0.0599
     51 H18        21.7355   11.9222   18.1469 H           1 MOL       0.0599
     52 H19        20.4832   12.7312   16.2333 H           1 MOL       0.0559
     53 H20        13.9137   11.4839   21.2588 H           1 MOL       0.1901
     54 H21        12.6864    9.7177   19.9034 H           1 MOL       0.0887
     55 H22        11.8460   12.7194   21.9640 H           1 MOL       0.0560
     56 H23        11.1776   10.7589   18.2810 H           1 MOL       0.0560
     57 H24        10.7409   14.6791   21.1062 H           1 MOL       0.0600
     58 H25        10.0671   12.7287   17.4478 H           1 MOL       0.0600
     59 H26         9.8420   14.6927   18.8549 H           1 MOL       0.0560
@<TRIPOS>BOND
     1     2     1   1
     2     2     5   1
     3     2     3   1
     4     3     4  ar
     5     3     9  ar
     6     5     6   1
     7     6     7   1
     8     7     8   2
     9     7    10  am
    10    10    11   1
    11    11    12   1
    12    11    21   1
    13    12    13   1
    14    13    14   1
    15    14    15   1
    16    15    16  ar
    17    15    17  ar
    18    16    18  ar
    19    17    19  ar
    20    18    20  ar
    21    19    20  ar
    22    21    22   2
    23    21    23  am
    24    23    24   1
    25    24    25   1
    26    24    31   1
    27    25    26  ar
    28    25    27  ar
    29    26    28  ar
    30    27    29  ar
    31    28    30  ar
    32    29    30  ar
    33    31    32  ar
    34    31    33  ar
    35     1    34   1
    36     1    35   1
    37     1    36   1
    38     2    37   1
    39     5    38   1
    40     5    39   1
    41     6    40   1
    42     6    41   1
    43    10    42   1
    44    11    43   1
    45    12    44   1
    46    12    45   1
    47    14    46   1
    48    14    47   1
    49    16    48   1
    50    17    49   1
    51    18    50   1
    52    19    51   1
    53    20    52   1
    54    23    53   1
    55    24    54   1
    56    26    55   1
    57    27    56   1
    58    28    57   1
    59    29    58   1
    60    30    59   1
@<TRIPOS>SUBSTRUCTURE
     1  MOL      2

