@<TRIPOS>MOLECULE
10gs_ligand_009
    59    60
SMALL
GAST_HUCK
****
This file was generated by PARSER (from files_GN.cpp)

@<TRIPOS>ATOM
      1 N          18.7273   12.7125   17.4137 N.4         1 MOL       0.2328
      2 CA         19.3419   12.9198   18.7350 C.3         1 MOL       0.0304
      3 C          20.8022   13.0235   18.5566 C.2         1 MOL       0.0846
      4 O          21.5583   11.9251   18.3319 O.co2       1 MOL      -0.5643
      5 CB         18.9431   11.7833   19.7189 C.3         1 MOL       0.0193
      6 CG         17.8089   12.1798   20.7110 C.3         1 MOL       0.0441
      7 CD         17.1854   11.0838   21.4439 C.2         1 MOL       0.1785
      8 OE1        17.6469    9.9540   21.3833 O.2         1 MOL      -0.3969
      9 OXT        21.4125   14.2259   18.6679 O.co2       1 MOL      -0.5643
     10 N          16.0489   11.3126   22.0937 N.am        1 MOL      -0.2648
     11 CA         15.1171   10.3606   22.6459 C.3         1 MOL       0.1400
     12 CB         14.4074    9.5443   21.5228 C.3         1 MOL       0.0361
     13 SG         13.5452   10.5896   20.3142 S.3         1 MOL      -0.1422
     14 CD         11.9479   10.8279   21.1460 C.3         1 MOL       0.0276
     15 CE         11.2965    9.5270   21.4460 C.ar        1 MOL      -0.0332
     16 CZ1        11.2544    9.0199   22.7677 C.ar        1 MOL      -0.0595
     17 CZ2        10.7687    8.7369   20.3986 C.ar        1 MOL      -0.0595
     18 CT1        10.7519    7.7334   23.0244 C.ar        1 MOL      -0.0685
     19 CT2        10.2737    7.4463   20.6551 C.ar        1 MOL      -0.0685
     20 CH         10.2707    6.9415   21.9663 C.ar        1 MOL      -0.0687
     21 C          15.6300    9.5050   23.7143 C.2         1 MOL       0.2059
     22 O          16.7623    9.0366   23.6438 O.2         1 MOL      -0.3942
     23 N          14.8212    9.1339   24.7035 N.am        1 MOL      -0.2587
     24 CA         15.1654    8.2890   25.8180 C.3         1 MOL       0.1278
     25 CB         13.9379    7.7521   26.4717 C.ar        1 MOL      -0.0049
     26 CG1        13.7190    6.3562   26.5564 C.ar        1 MOL      -0.0564
     27 CG2        12.9643    8.6170   27.0298 C.ar        1 MOL      -0.0564
     28 CD1        12.5531    5.8415   27.1462 C.ar        1 MOL      -0.0682
     29 CD2        11.7995    8.1003   27.6305 C.ar        1 MOL      -0.0682
     30 CE         11.5878    6.7138   27.6817 C.ar        1 MOL      -0.0685
     31 C          16.0169    8.9899   26.8057 C.2         1 MOL       0.0723
     32 O          17.1777    8.4256   27.2168 O.co2       1 MOL      -0.5642
     33 OXT        15.7310   10.2360   27.2442 O.co2       1 MOL      -0.5642
     34 H1         17.7145   12.6455   17.5118 H           1 MOL       0.2010
     35 H2         19.0807   11.8500   16.9947 H           1 MOL       0.2010
     36 H3         18.9579   13.4986   16.8038 H           1 MOL       0.2010
     37 H4         18.9774   13.8756   19.1204 H           1 MOL       0.1026
     38 H5         19.8018   11.4719   20.3193 H           1 MOL       0.0363
     39 H6         18.6397   10.9149   19.1319 H           1 MOL       0.0363
     40 H7         17.0098   12.6914   20.1596 H           1 MOL       0.0505
     41 H8         18.2247   12.8881   21.4447 H           1 MOL       0.0505
     42 H9         15.7249   12.2218   22.0851 H           1 MOL       0.1883
     43 H10        14.3566   10.9933   23.1135 H           1 MOL       0.0808
     44 H11        13.6953    8.8352   21.9555 H           1 MOL       0.0426
     45 H12        15.1517    8.9634   20.9698 H           1 MOL       0.0426
     46 H13        11.2986   11.4112   20.4915 H           1 MOL       0.0538
     47 H14        12.1133   11.4257   22.0448 H           1 MOL       0.0538
     48 H15        11.6329    9.5678   23.5455 H           1 MOL       0.0557
     49 H16        10.7913    9.0756   19.4338 H           1 MOL       0.0557
     50 H17        10.7513    7.3636   23.9784 H           1 MOL       0.0599
     51 H18         9.9348    6.8696   19.8826 H           1 MOL       0.0599
     52 H19         9.9354    5.9935   22.1500 H           1 MOL       0.0559
     53 H20        13.9113    9.4834   24.6860 H           1 MOL       0.1901
     54 H21        15.7600    7.4549   25.4167 H           1 MOL       0.0887
     55 H22        14.4117    5.6959   26.1886 H           1 MOL       0.0560
     56 H23        13.0977    9.6307   27.0006 H           1 MOL       0.0560
     57 H24        12.4083    4.8315   27.1923 H           1 MOL       0.0600
     58 H25        11.1067    8.7323   28.0294 H           1 MOL       0.0600
     59 H26        10.7432    6.3347   28.1121 H           1 MOL       0.0560
@<TRIPOS>BOND
     1     2     1   1
     2     2     5   1
     3     2     3   1
     4     3     4  ar
     5     3     9  ar
     6     5     6   1
     7     6     7   1
     8     7     8   2
     9     7    10  am
    10    10    11   1
    11    11    12   1
    12    11    21   1
    13    12    13   1
    14    13    14   1
    15    14    15   1
    16    15    16  ar
    17    15    17  ar
    18    16    18  ar
    19    17    19  ar
    20    18    20  ar
    21    19    20  ar
    22    21    22   2
    23    21    23  am
    24    23    24   1
    25    24    25   1
    26    24    31   1
    27    25    26  ar
    28    25    27  ar
    29    26    28  ar
    30    27    29  ar
    31    28    30  ar
    32    29    30  ar
    33    31    32  ar
    34    31    33  ar
    35     1    34   1
    36     1    35   1
    37     1    36   1
    38     2    37   1
    39     5    38   1
    40     5    39   1
    41     6    40   1
    42     6    41   1
    43    10    42   1
    44    11    43   1
    45    12    44   1
    46    12    45   1
    47    14    46   1
    48    14    47   1
    49    16    48   1
    50    17    49   1
    51    18    50   1
    52    19    51   1
    53    20    52   1
    54    23    53   1
    55    24    54   1
    56    26    55   1
    57    27    56   1
    58    28    57   1
    59    29    58   1
    60    30    59   1
@<TRIPOS>SUBSTRUCTURE
     1  MOL      2

