@<TRIPOS>MOLECULE
10gs_ligand_012
    59    60
SMALL
GAST_HUCK
****
This file was generated by PARSER (from files_GN.cpp)

@<TRIPOS>ATOM
      1 N          11.4114   16.1538   27.3847 N.4         1 MOL       0.2328
      2 CA         10.3442   15.6766   26.4911 C.3         1 MOL       0.0304
      3 C           9.1788   15.3215   27.3270 C.2         1 MOL       0.0846
      4 O           8.2119   16.2328   27.5911 O.co2       1 MOL      -0.5643
      5 CB         10.8110   14.4940   25.5954 C.3         1 MOL       0.0193
      6 CG         11.3356   14.9184   24.1948 C.3         1 MOL       0.0441
      7 CD         11.1912   13.8468   23.2130 C.2         1 MOL       0.1785
      8 OE1        10.3538   13.9685   22.3308 O.2         1 MOL      -0.3969
      9 OXT         9.1205   14.1322   27.9679 O.co2       1 MOL      -0.5643
     10 N          11.8558   12.7069   23.3876 N.am        1 MOL      -0.2648
     11 CA         11.6179   11.4729   22.6912 C.3         1 MOL       0.1400
     12 CB         12.0530   11.5042   21.1943 C.3         1 MOL       0.0361
     13 SG         11.2384   10.2487   20.1658 S.3         1 MOL      -0.1422
     14 CD          9.5192   10.8214   20.1705 C.3         1 MOL       0.0276
     15 CE          8.6003    9.7285   20.5764 C.ar        1 MOL      -0.0332
     16 CZ1         8.0399    9.6706   21.8778 C.ar        1 MOL      -0.0595
     17 CZ2         8.2082    8.7390   19.6408 C.ar        1 MOL      -0.0595
     18 CT1         7.1836    8.6151   22.2517 C.ar        1 MOL      -0.0685
     19 CT2         7.3478    7.6888   20.0103 C.ar        1 MOL      -0.0685
     20 CH          6.8296    7.6279   21.3135 C.ar        1 MOL      -0.0687
     21 C          12.2896   10.3939   23.4040 C.2         1 MOL       0.2059
     22 O          11.6601    9.4058   23.7491 O.2         1 MOL      -0.3942
     23 N          13.5818   10.5156   23.7026 N.am        1 MOL      -0.2587
     24 CA         14.4045    9.6507   24.5126 C.3         1 MOL       0.1278
     25 CB         14.6028   10.2787   25.8608 C.ar        1 MOL      -0.0049
     26 CG1        14.5515    9.4846   27.0339 C.ar        1 MOL      -0.0564
     27 CG2        14.9516   11.6455   26.0019 C.ar        1 MOL      -0.0564
     28 CD1        14.7931   10.0483   28.3033 C.ar        1 MOL      -0.0682
     29 CD2        15.1748   12.2168   27.2683 C.ar        1 MOL      -0.0682
     30 CE         15.1052   11.4141   28.4194 C.ar        1 MOL      -0.0685
     31 C          15.7014    9.3772   23.8689 C.2         1 MOL       0.0723
     32 O          15.9116    9.6063   22.5604 O.co2       1 MOL      -0.5642
     33 OXT        16.6803    8.7553   24.5557 O.co2       1 MOL      -0.5642
     34 H1         12.2673   16.3185   26.8510 H           1 MOL       0.2010
     35 H2         11.5939   15.4568   28.1122 H           1 MOL       0.2010
     36 H3         11.1197   17.0305   27.8311 H           1 MOL       0.2010
     37 H4         10.0452   16.5225   25.8668 H           1 MOL       0.1026
     38 H5          9.9740   13.8124   25.4534 H           1 MOL       0.0363
     39 H6         11.5944   13.9484   26.1068 H           1 MOL       0.0363
     40 H7         12.3861   15.2182   24.2550 H           1 MOL       0.0505
     41 H8         10.7815   15.7997   23.8388 H           1 MOL       0.0505
     42 H9         12.4767   12.6880   24.1295 H           1 MOL       0.1883
     43 H10        10.5455   11.2928   22.7349 H           1 MOL       0.0808
     44 H11        13.1296   11.3268   21.1126 H           1 MOL       0.0426
     45 H12        11.8700   12.4800   20.7463 H           1 MOL       0.0426
     46 H13         9.2652   11.1359   19.1600 H           1 MOL       0.0538
     47 H14         9.4039   11.6946   20.8111 H           1 MOL       0.0538
     48 H15         8.2795   10.3839   22.5798 H           1 MOL       0.0557
     49 H16         8.5756    8.7682   18.6827 H           1 MOL       0.0557
     50 H17         6.8047    8.5780   23.2043 H           1 MOL       0.0599
     51 H18         7.0804    6.9848   19.3197 H           1 MOL       0.0599
     52 H19         6.2109    6.8721   21.5824 H           1 MOL       0.0559
     53 H20        14.0070   11.3509   23.4213 H           1 MOL       0.1901
     54 H21        13.9118    8.6841   24.6354 H           1 MOL       0.0887
     55 H22        14.3305    8.4857   26.9769 H           1 MOL       0.0560
     56 H23        15.0034   12.2521   25.1814 H           1 MOL       0.0560
     57 H24        14.7594    9.4601   29.1395 H           1 MOL       0.0600
     58 H25        15.4094   13.2082   27.3453 H           1 MOL       0.0600
     59 H26        15.2833   11.8220   29.3368 H           1 MOL       0.0560
@<TRIPOS>BOND
     1     2     1   1
     2     2     5   1
     3     2     3   1
     4     3     4  ar
     5     3     9  ar
     6     5     6   1
     7     6     7   1
     8     7     8   2
     9     7    10  am
    10    10    11   1
    11    11    12   1
    12    11    21   1
    13    12    13   1
    14    13    14   1
    15    14    15   1
    16    15    16  ar
    17    15    17  ar
    18    16    18  ar
    19    17    19  ar
    20    18    20  ar
    21    19    20  ar
    22    21    22   2
    23    21    23  am
    24    23    24   1
    25    24    25   1
    26    24    31   1
    27    25    26  ar
    28    25    27  ar
    29    26    28  ar
    30    27    29  ar
    31    28    30  ar
    32    29    30  ar
    33    31    32  ar
    34    31    33  ar
    35     1    34   1
    36     1    35   1
    37     1    36   1
    38     2    37   1
    39     5    38   1
    40     5    39   1
    41     6    40   1
    42     6    41   1
    43    10    42   1
    44    11    43   1
    45    12    44   1
    46    12    45   1
    47    14    46   1
    48    14    47   1
    49    16    48   1
    50    17    49   1
    51    18    50   1
    52    19    51   1
    53    20    52   1
    54    23    53   1
    55    24    54   1
    56    26    55   1
    57    27    56   1
    58    28    57   1
    59    29    58   1
    60    30    59   1
@<TRIPOS>SUBSTRUCTURE
     1  MOL      2

