@<TRIPOS>MOLECULE
10gs_ligand_026
    59    60
SMALL
GAST_HUCK
****
This file was generated by PARSER (from files_GN.cpp)

@<TRIPOS>ATOM
      1 N           7.1768    6.8200   29.5624 N.4         1 MOL       0.2328
      2 CA          8.6397    7.0003   29.5391 C.3         1 MOL       0.0304
      3 C           9.0703    7.9703   30.5728 C.2         1 MOL       0.0846
      4 O          10.3830    8.0676   30.8772 O.co2       1 MOL      -0.5643
      5 CB          9.0889    7.3993   28.1010 C.3         1 MOL       0.0193
      6 CG         10.6319    7.5870   27.9471 C.3         1 MOL       0.0441
      7 CD         11.0973    7.4882   26.5716 C.2         1 MOL       0.1785
      8 OE1        11.8251    6.5515   26.2590 O.2         1 MOL      -0.3969
      9 OXT         8.1792    8.6747   31.3103 O.co2       1 MOL      -0.5643
     10 N          10.7714    8.4315   25.6914 N.am        1 MOL      -0.2648
     11 CA         11.2377    8.5036   24.3281 C.3         1 MOL       0.1400
     12 CB         10.3967    9.5310   23.5111 C.3         1 MOL       0.0361
     13 SG          8.5958    9.2542   23.5120 S.3         1 MOL      -0.1422
     14 CD          8.3817    7.6479   22.6944 C.3         1 MOL       0.0276
     15 CE          8.6603    7.6720   21.2345 C.ar        1 MOL      -0.0332
     16 CZ1         9.9762    7.5060   20.7419 C.ar        1 MOL      -0.0595
     17 CZ2         7.6028    7.7927   20.2966 C.ar        1 MOL      -0.0595
     18 CT1        10.2341    7.4843   19.3574 C.ar        1 MOL      -0.0685
     19 CT2         7.8564    7.7645   18.9131 C.ar        1 MOL      -0.0685
     20 CH          9.1751    7.6198   18.4432 C.ar        1 MOL      -0.0687
     21 C          12.6677    8.7944   24.2384 C.2         1 MOL       0.2059
     22 O          13.2377    8.5600   23.1724 O.2         1 MOL      -0.3942
     23 N          13.3349    9.2943   25.2778 N.am        1 MOL      -0.2587
     24 CA         14.7536    9.3172   25.4991 C.3         1 MOL       0.1278
     25 CB         15.0427   10.3420   26.5495 C.ar        1 MOL      -0.0049
     26 CG1        14.9603   11.7258   26.2469 C.ar        1 MOL      -0.0564
     27 CG2        15.3746    9.9692   27.8750 C.ar        1 MOL      -0.0564
     28 CD1        15.2127   12.7019   27.2282 C.ar        1 MOL      -0.0682
     29 CD2        15.6176   10.9456   28.8630 C.ar        1 MOL      -0.0682
     30 CE         15.5423   12.3120   28.5388 C.ar        1 MOL      -0.0685
     31 C          15.6195    9.5525   24.3186 C.2         1 MOL       0.0723
     32 O          16.8431    8.9812   24.2492 O.co2       1 MOL      -0.5642
     33 OXT        15.1438   10.1797   23.2183 O.co2       1 MOL      -0.5642
     34 H1          6.9044    6.1079   28.8767 H           1 MOL       0.2010
     35 H2          6.7075    7.7032   29.3386 H           1 MOL       0.2010
     36 H3          6.8873    6.5112   30.4954 H           1 MOL       0.2010
     37 H4          9.0605    6.0212   29.7871 H           1 MOL       0.1026
     38 H5          8.5850    8.3312   27.8089 H           1 MOL       0.0363
     39 H6          8.7618    6.6086   27.4141 H           1 MOL       0.0363
     40 H7         11.1450    6.8312   28.5583 H           1 MOL       0.0505
     41 H8         10.9189    8.5735   28.3406 H           1 MOL       0.0505
     42 H9         10.1886    9.1439   25.9928 H           1 MOL       0.1883
     43 H10        11.0828    7.5159   23.8793 H           1 MOL       0.0808
     44 H11        10.7451    9.5529   22.4748 H           1 MOL       0.0426
     45 H12        10.5632   10.5295   23.9324 H           1 MOL       0.0426
     46 H13         7.3419    7.3549   22.8531 H           1 MOL       0.0538
     47 H14         8.9839    6.8867   23.1900 H           1 MOL       0.0538
     48 H15        10.7611    7.3861   21.3844 H           1 MOL       0.0557
     49 H16         6.6360    7.8907   20.6148 H           1 MOL       0.0557
     50 H17        11.1917    7.3663   19.0126 H           1 MOL       0.0599
     51 H18         7.0836    7.8497   18.2439 H           1 MOL       0.0599
     52 H19         9.3619    7.6125   17.4362 H           1 MOL       0.0559
     53 H20        12.7962    9.4946   26.0617 H           1 MOL       0.1901
     54 H21        15.0042    8.3222   25.8804 H           1 MOL       0.0887
     55 H22        14.7092   12.0365   25.3035 H           1 MOL       0.0560
     56 H23        15.4310    8.9829   28.1391 H           1 MOL       0.0560
     57 H24        15.1565   13.6967   26.9897 H           1 MOL       0.0600
     58 H25        15.8478   10.6601   29.8196 H           1 MOL       0.0600
     59 H26        15.7181   13.0214   29.2553 H           1 MOL       0.0560
@<TRIPOS>BOND
     1     2     1   1
     2     2     5   1
     3     2     3   1
     4     3     4  ar
     5     3     9  ar
     6     5     6   1
     7     6     7   1
     8     7     8   2
     9     7    10  am
    10    10    11   1
    11    11    12   1
    12    11    21   1
    13    12    13   1
    14    13    14   1
    15    14    15   1
    16    15    16  ar
    17    15    17  ar
    18    16    18  ar
    19    17    19  ar
    20    18    20  ar
    21    19    20  ar
    22    21    22   2
    23    21    23  am
    24    23    24   1
    25    24    25   1
    26    24    31   1
    27    25    26  ar
    28    25    27  ar
    29    26    28  ar
    30    27    29  ar
    31    28    30  ar
    32    29    30  ar
    33    31    32  ar
    34    31    33  ar
    35     1    34   1
    36     1    35   1
    37     1    36   1
    38     2    37   1
    39     5    38   1
    40     5    39   1
    41     6    40   1
    42     6    41   1
    43    10    42   1
    44    11    43   1
    45    12    44   1
    46    12    45   1
    47    14    46   1
    48    14    47   1
    49    16    48   1
    50    17    49   1
    51    18    50   1
    52    19    51   1
    53    20    52   1
    54    23    53   1
    55    24    54   1
    56    26    55   1
    57    27    56   1
    58    28    57   1
    59    29    58   1
    60    30    59   1
@<TRIPOS>SUBSTRUCTURE
     1  MOL      2

