@<TRIPOS>MOLECULE
10gs_ligand_013
    59    60
SMALL
GAST_HUCK
****
This file was generated by PARSER (from files_GN.cpp)

@<TRIPOS>ATOM
      1 N          15.8970   11.6978   18.9793 N.4         1 MOL       0.2328
      2 CA         17.1656   12.4280   18.8555 C.3         1 MOL       0.0304
      3 C          18.1835   11.5453   18.2538 C.2         1 MOL       0.0846
      4 O          18.5454   11.7077   16.9579 O.co2       1 MOL      -0.5643
      5 CB         17.5652   13.0954   20.2062 C.3         1 MOL       0.0193
      6 CG         17.9705   12.1813   21.3976 C.3         1 MOL       0.0441
      7 CD         17.0502   11.1011   21.7317 C.2         1 MOL       0.1785
      8 OE1        17.4306    9.9498   21.5567 O.2         1 MOL      -0.3969
      9 OXT        18.5727   10.4051   18.8746 O.co2       1 MOL      -0.5643
     10 N          15.8634   11.3745   22.2615 N.am        1 MOL      -0.2648
     11 CA         14.8299   10.4729   22.7200 C.3         1 MOL       0.1400
     12 CB         14.2544    9.5593   21.5983 C.3         1 MOL       0.0361
     13 SG         13.4273   10.5098   20.2919 S.3         1 MOL      -0.1422
     14 CD         11.7710   10.7312   21.0004 C.3         1 MOL       0.0276
     15 CE         10.8535    9.6851   20.4825 C.ar        1 MOL      -0.0332
     16 CZ1        10.4341    8.6115   21.3017 C.ar        1 MOL      -0.0595
     17 CZ2        10.4011    9.7355   19.1414 C.ar        1 MOL      -0.0595
     18 CT1         9.5894    7.6103   20.7875 C.ar        1 MOL      -0.0685
     19 CT2         9.5629    8.7296   18.6258 C.ar        1 MOL      -0.0685
     20 CH          9.1612    7.6638   19.4497 C.ar        1 MOL      -0.0687
     21 C          15.2120    9.7185   23.9106 C.2         1 MOL       0.2059
     22 O          16.2473    9.0592   23.9034 O.2         1 MOL      -0.3942
     23 N          14.4111    9.7429   24.9769 N.am        1 MOL      -0.2587
     24 CA         14.6296    9.2609   26.3126 C.3         1 MOL       0.1278
     25 CB         15.2425   10.2685   27.2418 C.ar        1 MOL      -0.0049
     26 CG1        15.5803    9.8953   28.5689 C.ar        1 MOL      -0.0564
     27 CG2        15.4101   11.6338   26.8858 C.ar        1 MOL      -0.0564
     28 CD1        16.0749   10.8322   29.4935 C.ar        1 MOL      -0.0682
     29 CD2        15.8872   12.5760   27.8148 C.ar        1 MOL      -0.0682
     30 CE         16.2191   12.1772   29.1205 C.ar        1 MOL      -0.0685
     31 C          15.2781    7.9271   26.3360 C.2         1 MOL       0.0723
     32 O          14.5436    6.7996   26.4675 O.co2       1 MOL      -0.5642
     33 OXT        16.6201    7.8164   26.2346 O.co2       1 MOL      -0.5642
     34 H1         15.2215   12.2834   19.4812 H           1 MOL       0.2010
     35 H2         16.0506   10.8265   19.4957 H           1 MOL       0.2010
     36 H3         15.5364   11.4762   18.0449 H           1 MOL       0.2010
     37 H4         16.9651   13.2370   18.1543 H           1 MOL       0.1026
     38 H5         16.7399   13.7368   20.5250 H           1 MOL       0.0363
     39 H6         18.4118   13.7596   20.0053 H           1 MOL       0.0363
     40 H7         18.0698   12.8135   22.2855 H           1 MOL       0.0505
     41 H8         18.9669   11.7780   21.1914 H           1 MOL       0.0505
     42 H9         15.6423   12.3139   22.3546 H           1 MOL       0.1883
     43 H10        14.0171   11.1470   23.0098 H           1 MOL       0.0808
     44 H11        13.5472    8.8405   22.0200 H           1 MOL       0.0426
     45 H12        15.0624    8.9923   21.1345 H           1 MOL       0.0426
     46 H13        11.4018   11.7120   20.6974 H           1 MOL       0.0538
     47 H14        11.8150   10.7371   22.0924 H           1 MOL       0.0538
     48 H15        10.7447    8.5475   22.2728 H           1 MOL       0.0557
     49 H16        10.6821   10.5040   18.5297 H           1 MOL       0.0557
     50 H17         9.3029    6.8355   21.3870 H           1 MOL       0.0599
     51 H18         9.2590    8.7641   17.6515 H           1 MOL       0.0599
     52 H19         8.5502    6.9320   19.0731 H           1 MOL       0.0559
     53 H20        13.5989   10.2608   24.8642 H           1 MOL       0.1901
     54 H21        13.6199    9.1098   26.7056 H           1 MOL       0.0887
     55 H22        15.4661    8.9294   28.8751 H           1 MOL       0.0560
     56 H23        15.1552   11.9706   25.9559 H           1 MOL       0.0560
     57 H24        16.3226   10.5359   30.4412 H           1 MOL       0.0600
     58 H25        15.9745   13.5559   27.5439 H           1 MOL       0.0600
     59 H26        16.5541   12.8673   29.7973 H           1 MOL       0.0560
@<TRIPOS>BOND
     1     2     1   1
     2     2     5   1
     3     2     3   1
     4     3     4  ar
     5     3     9  ar
     6     5     6   1
     7     6     7   1
     8     7     8   2
     9     7    10  am
    10    10    11   1
    11    11    12   1
    12    11    21   1
    13    12    13   1
    14    13    14   1
    15    14    15   1
    16    15    16  ar
    17    15    17  ar
    18    16    18  ar
    19    17    19  ar
    20    18    20  ar
    21    19    20  ar
    22    21    22   2
    23    21    23  am
    24    23    24   1
    25    24    25   1
    26    24    31   1
    27    25    26  ar
    28    25    27  ar
    29    26    28  ar
    30    27    29  ar
    31    28    30  ar
    32    29    30  ar
    33    31    32  ar
    34    31    33  ar
    35     1    34   1
    36     1    35   1
    37     1    36   1
    38     2    37   1
    39     5    38   1
    40     5    39   1
    41     6    40   1
    42     6    41   1
    43    10    42   1
    44    11    43   1
    45    12    44   1
    46    12    45   1
    47    14    46   1
    48    14    47   1
    49    16    48   1
    50    17    49   1
    51    18    50   1
    52    19    51   1
    53    20    52   1
    54    23    53   1
    55    24    54   1
    56    26    55   1
    57    27    56   1
    58    28    57   1
    59    29    58   1
    60    30    59   1
@<TRIPOS>SUBSTRUCTURE
     1  MOL      2

