@<TRIPOS>MOLECULE
10gs_ligand_004
    59    60
SMALL
GAST_HUCK
****
This file was generated by PARSER (from files_GN.cpp)

@<TRIPOS>ATOM
      1 N          18.6938   12.6456   17.4674 N.4         1 MOL       0.2328
      2 CA         19.3489   12.8553   18.7663 C.3         1 MOL       0.0304
      3 C          20.8044   12.9821   18.5407 C.2         1 MOL       0.0846
      4 O          21.5810   11.8952   18.3237 O.co2       1 MOL      -0.5643
      5 CB         18.9610   11.7102   19.7535 C.3         1 MOL       0.0193
      6 CG         17.8568   12.1358   20.7708 C.3         1 MOL       0.0441
      7 CD         17.1286   11.0710   21.4329 C.2         1 MOL       0.1785
      8 OE1        17.5399    9.9138   21.3927 O.2         1 MOL      -0.3969
      9 OXT        21.3848   14.2054   18.5722 O.co2       1 MOL      -0.5643
     10 N          15.9549   11.3574   21.9606 N.am        1 MOL      -0.2648
     11 CA         14.9515   10.4837   22.4901 C.3         1 MOL       0.1400
     12 CB         14.3643    9.5465   21.3952 C.3         1 MOL       0.0361
     13 SG         13.5461   10.4547   20.0450 S.3         1 MOL      -0.1422
     14 CD         11.9271   10.8861   20.7643 C.3         1 MOL       0.0276
     15 CE         11.4081    9.8494   21.6964 C.ar        1 MOL      -0.0332
     16 CZ1        11.3602   10.0727   23.0960 C.ar        1 MOL      -0.0595
     17 CZ2        10.9428    8.6146   21.1899 C.ar        1 MOL      -0.0595
     18 CT1        10.9551    9.0448   23.9708 C.ar        1 MOL      -0.0685
     19 CT2        10.5543    7.5849   22.0627 C.ar        1 MOL      -0.0685
     20 CH         10.5692    7.7961   23.4533 C.ar        1 MOL      -0.0687
     21 C          15.3469    9.7628   23.7104 C.2         1 MOL       0.2059
     22 O          16.3902    9.1038   23.7349 O.2         1 MOL      -0.3942
     23 N          14.5092    9.7422   24.7519 N.am        1 MOL      -0.2587
     24 CA         14.7013    9.2233   26.0878 C.3         1 MOL       0.1278
     25 CB         15.2989   10.2013   27.0654 C.ar        1 MOL      -0.0049
     26 CG1        15.6319    9.7736   28.3766 C.ar        1 MOL      -0.0564
     27 CG2        15.4154   11.5886   26.7813 C.ar        1 MOL      -0.0564
     28 CD1        16.0815   10.6831   29.3539 C.ar        1 MOL      -0.0682
     29 CD2        15.8458   12.5038   27.7594 C.ar        1 MOL      -0.0682
     30 CE         16.1725   12.0526   29.0475 C.ar        1 MOL      -0.0685
     31 C          15.3233    7.8688   26.0774 C.2         1 MOL       0.0723
     32 O          16.6632    7.7362   25.9863 O.co2       1 MOL      -0.5642
     33 OXT        14.5734    6.7727   26.3413 O.co2       1 MOL      -0.5642
     34 H1         17.6821   12.5897   17.5999 H           1 MOL       0.2010
     35 H2         19.0256   11.7730   17.0512 H           1 MOL       0.2010
     36 H3         18.9151   13.4238   16.8420 H           1 MOL       0.2010
     37 H4         18.9900   13.8150   19.1598 H           1 MOL       0.1026
     38 H5         19.8331   11.3811   20.3232 H           1 MOL       0.0363
     39 H6         18.6158   10.8588   19.1722 H           1 MOL       0.0363
     40 H7         17.1367   12.8017   20.2635 H           1 MOL       0.0505
     41 H8         18.3392   12.7349   21.5655 H           1 MOL       0.0505
     42 H9         15.6752   12.2849   21.8914 H           1 MOL       0.1883
     43 H10        14.1546   11.1707   22.8023 H           1 MOL       0.0808
     44 H11        13.6318    8.8681   21.8438 H           1 MOL       0.0426
     45 H12        15.1742    8.9608   20.9620 H           1 MOL       0.0426
     46 H13        11.2174   11.0088   19.9391 H           1 MOL       0.0538
     47 H14        12.0280   11.8587   21.2536 H           1 MOL       0.0538
     48 H15        11.6730   10.9643   23.4882 H           1 MOL       0.0557
     49 H16        10.9656    8.4336   20.1830 H           1 MOL       0.0557
     50 H17        10.9669    9.2006   24.9801 H           1 MOL       0.0599
     51 H18        10.2768    6.6756   21.6830 H           1 MOL       0.0599
     52 H19        10.2857    7.0474   24.0851 H           1 MOL       0.0559
     53 H20        13.6703   10.2158   24.6279 H           1 MOL       0.1901
     54 H21        13.6737    9.0807   26.4568 H           1 MOL       0.0887
     55 H22        15.5486    8.7964   28.6375 H           1 MOL       0.0560
     56 H23        15.1576   11.9581   25.8642 H           1 MOL       0.0560
     57 H24        16.3384   10.3504   30.2904 H           1 MOL       0.0600
     58 H25        15.9034   13.4945   27.5403 H           1 MOL       0.0600
     59 H26        16.4743   12.7212   29.7683 H           1 MOL       0.0560
@<TRIPOS>BOND
     1     2     1   1
     2     2     5   1
     3     2     3   1
     4     3     4  ar
     5     3     9  ar
     6     5     6   1
     7     6     7   1
     8     7     8   2
     9     7    10  am
    10    10    11   1
    11    11    12   1
    12    11    21   1
    13    12    13   1
    14    13    14   1
    15    14    15   1
    16    15    16  ar
    17    15    17  ar
    18    16    18  ar
    19    17    19  ar
    20    18    20  ar
    21    19    20  ar
    22    21    22   2
    23    21    23  am
    24    23    24   1
    25    24    25   1
    26    24    31   1
    27    25    26  ar
    28    25    27  ar
    29    26    28  ar
    30    27    29  ar
    31    28    30  ar
    32    29    30  ar
    33    31    32  ar
    34    31    33  ar
    35     1    34   1
    36     1    35   1
    37     1    36   1
    38     2    37   1
    39     5    38   1
    40     5    39   1
    41     6    40   1
    42     6    41   1
    43    10    42   1
    44    11    43   1
    45    12    44   1
    46    12    45   1
    47    14    46   1
    48    14    47   1
    49    16    48   1
    50    17    49   1
    51    18    50   1
    52    19    51   1
    53    20    52   1
    54    23    53   1
    55    24    54   1
    56    26    55   1
    57    27    56   1
    58    28    57   1
    59    29    58   1
    60    30    59   1
@<TRIPOS>SUBSTRUCTURE
     1  MOL      2

