@<TRIPOS>MOLECULE
10gs_ligand_029
    59    60
SMALL
GAST_HUCK
****
This file was generated by PARSER (from files_GN.cpp)

@<TRIPOS>ATOM
      1 N          16.2755    9.0992   27.9241 N.4         1 MOL       0.2328
      2 CA         15.3194    9.3093   26.8170 C.3         1 MOL       0.0304
      3 C          15.3755    8.0662   26.0188 C.2         1 MOL       0.0846
      4 O          14.2506    7.3178   25.8498 O.co2       1 MOL      -0.5643
      5 CB         15.6620   10.6285   26.0509 C.3         1 MOL       0.0193
      6 CG         14.6744   11.0995   24.9385 C.3         1 MOL       0.0441
      7 CD         14.5936   10.2922   23.7429 C.2         1 MOL       0.1785
      8 OE1        14.4221    9.0647   23.8591 O.2         1 MOL      -0.3969
      9 OXT        16.4291    7.8311   25.1876 O.co2       1 MOL      -0.5643
     10 N          14.5882   10.7809   22.5234 N.am        1 MOL      -0.2648
     11 CA         14.4736   10.0428   21.2768 C.3         1 MOL       0.1400
     12 CB         13.1658   10.3679   20.4905 C.3         1 MOL       0.0361
     13 SG         11.6210   10.1118   21.4091 S.3         1 MOL      -0.1422
     14 CD         11.4403   11.7305   22.2060 C.3         1 MOL       0.0276
     15 CE         10.0630   11.8845   22.7371 C.ar        1 MOL      -0.0332
     16 CZ1         9.1527   12.7865   22.1275 C.ar        1 MOL      -0.0595
     17 CZ2         9.6296   11.1426   23.8591 C.ar        1 MOL      -0.0595
     18 CT1         7.8464   12.9271   22.6229 C.ar        1 MOL      -0.0685
     19 CT2         8.3199   11.2848   24.3551 C.ar        1 MOL      -0.0685
     20 CH          7.4272   12.1784   23.7343 C.ar        1 MOL      -0.0687
     21 C          15.6533   10.2788   20.4479 C.2         1 MOL       0.2059
     22 O          16.4627    9.3533   20.3282 O.2         1 MOL      -0.3942
     23 N          15.8511   11.4367   19.8315 N.am        1 MOL      -0.2587
     24 CA         16.8559   11.8264   18.8604 C.3         1 MOL       0.1278
     25 CB         16.3697   11.8220   17.4378 C.ar        1 MOL      -0.0049
     26 CG1        17.2037   12.3572   16.4145 C.ar        1 MOL      -0.0564
     27 CG2        15.0735   11.3905   17.0586 C.ar        1 MOL      -0.0564
     28 CD1        16.7657   12.4400   15.0837 C.ar        1 MOL      -0.0682
     29 CD2        14.6250   11.4898   15.7310 C.ar        1 MOL      -0.0682
     30 CE         15.4766   12.0096   14.7369 C.ar        1 MOL      -0.0685
     31 C          18.1592   11.1491   19.0786 C.2         1 MOL       0.0723
     32 O          18.9685   10.7520   18.0646 O.co2       1 MOL      -0.5642
     33 OXT        18.5797   10.9026   20.3391 O.co2       1 MOL      -0.5642
     34 H1         16.2731    9.9122   28.5439 H           1 MOL       0.2010
     35 H2         17.2183    8.9534   27.5460 H           1 MOL       0.2010
     36 H3         15.9997    8.2704   28.4639 H           1 MOL       0.2010
     37 H4         14.3301    9.3989   27.2809 H           1 MOL       0.1026
     38 H5         16.6717   10.5523   25.6418 H           1 MOL       0.0363
     39 H6         15.6896   11.4243   26.8094 H           1 MOL       0.0363
     40 H7         15.0051   12.1070   24.6491 H           1 MOL       0.0505
     41 H8         13.6762   11.2050   25.3754 H           1 MOL       0.0505
     42 H9         14.5747   11.7526   22.4451 H           1 MOL       0.1883
     43 H10        14.4139    8.9768   21.5117 H           1 MOL       0.0808
     44 H11        13.1165    9.6747   19.6431 H           1 MOL       0.0426
     45 H12        13.1843   11.3779   20.0811 H           1 MOL       0.0426
     46 H13        11.6686   12.5182   21.4842 H           1 MOL       0.0538
     47 H14        12.1490   11.8261   23.0277 H           1 MOL       0.0538
     48 H15         9.4359   13.3368   21.3137 H           1 MOL       0.0557
     49 H16        10.2652   10.4853   24.3222 H           1 MOL       0.0557
     50 H17         7.1962   13.5749   22.1692 H           1 MOL       0.0599
     51 H18         8.0148   10.7388   25.1632 H           1 MOL       0.0599
     52 H19         6.4753   12.2809   24.0926 H           1 MOL       0.0559
     53 H20        15.1576   12.1047   19.9769 H           1 MOL       0.1901
     54 H21        17.0461   12.8782   19.0863 H           1 MOL       0.0887
     55 H22        18.1377   12.7027   16.6435 H           1 MOL       0.0560
     56 H23        14.4239   11.0193   17.7549 H           1 MOL       0.0560
     57 H24        17.3836   12.8281   14.3650 H           1 MOL       0.0600
     58 H25        13.6787   11.1986   15.4846 H           1 MOL       0.0600
     59 H26        15.1513   12.0802   13.7719 H           1 MOL       0.0560
@<TRIPOS>BOND
     1     2     1   1
     2     2     5   1
     3     2     3   1
     4     3     4  ar
     5     3     9  ar
     6     5     6   1
     7     6     7   1
     8     7     8   2
     9     7    10  am
    10    10    11   1
    11    11    12   1
    12    11    21   1
    13    12    13   1
    14    13    14   1
    15    14    15   1
    16    15    16  ar
    17    15    17  ar
    18    16    18  ar
    19    17    19  ar
    20    18    20  ar
    21    19    20  ar
    22    21    22   2
    23    21    23  am
    24    23    24   1
    25    24    25   1
    26    24    31   1
    27    25    26  ar
    28    25    27  ar
    29    26    28  ar
    30    27    29  ar
    31    28    30  ar
    32    29    30  ar
    33    31    32  ar
    34    31    33  ar
    35     1    34   1
    36     1    35   1
    37     1    36   1
    38     2    37   1
    39     5    38   1
    40     5    39   1
    41     6    40   1
    42     6    41   1
    43    10    42   1
    44    11    43   1
    45    12    44   1
    46    12    45   1
    47    14    46   1
    48    14    47   1
    49    16    48   1
    50    17    49   1
    51    18    50   1
    52    19    51   1
    53    20    52   1
    54    23    53   1
    55    24    54   1
    56    26    55   1
    57    27    56   1
    58    28    57   1
    59    29    58   1
    60    30    59   1
@<TRIPOS>SUBSTRUCTURE
     1  MOL      2

