@<TRIPOS>MOLECULE
10gs_ligand_007
    59    60
SMALL
GAST_HUCK
****
This file was generated by PARSER (from files_GN.cpp)

@<TRIPOS>ATOM
      1 N           9.2463   10.7902   24.1167 N.4         1 MOL       0.2328
      2 CA          9.0545   12.1598   23.6078 C.3         1 MOL       0.0304
      3 C           8.9564   12.1907   22.1331 C.2         1 MOL       0.0846
      4 O           8.7874   11.0572   21.4105 O.co2       1 MOL      -0.5643
      5 CB         10.1403   13.1225   24.1831 C.3         1 MOL       0.0193
      6 CG         11.5700   13.1056   23.5632 C.3         1 MOL       0.0441
      7 CD         12.1125   11.7920   23.2616 C.2         1 MOL       0.1785
      8 OE1        12.4110   11.0448   24.1707 O.2         1 MOL      -0.3969
      9 OXT         8.8354   13.3717   21.4940 O.co2       1 MOL      -0.5643
     10 N          12.2731   11.4243   21.9857 N.am        1 MOL      -0.2648
     11 CA         12.7428   10.1467   21.5182 C.3         1 MOL       0.1400
     12 CB         12.7198   10.0777   19.9604 C.3         1 MOL       0.0361
     13 SG         11.1284   10.5810   19.2368 S.3         1 MOL      -0.1422
     14 CD         11.6345   12.1165   18.4193 C.3         1 MOL       0.0276
     15 CE         10.4611   12.7838   17.8026 C.ar        1 MOL      -0.0332
     16 CZ1         9.7554   13.7962   18.5021 C.ar        1 MOL      -0.0595
     17 CZ2        10.0292   12.4464   16.4953 C.ar        1 MOL      -0.0595
     18 CT1         8.6640   14.4538   17.9120 C.ar        1 MOL      -0.0685
     19 CT2         8.9395   13.1074   15.9024 C.ar        1 MOL      -0.0685
     20 CH          8.2558   14.1161   16.6086 C.ar        1 MOL      -0.0687
     21 C          14.0804    9.8769   22.0129 C.2         1 MOL       0.2059
     22 O          14.2489    8.8767   22.7300 O.2         1 MOL      -0.3942
     23 N          15.0519   10.7295   21.7332 N.am        1 MOL      -0.2587
     24 CA         16.4171   10.8409   22.1544 C.3         1 MOL       0.1278
     25 CB         17.1214   11.4820   20.9922 C.ar        1 MOL      -0.0049
     26 CG1        17.3620   10.7634   19.7913 C.ar        1 MOL      -0.0564
     27 CG2        17.4846   12.8478   21.0275 C.ar        1 MOL      -0.0564
     28 CD1        17.9721   11.3799   18.6834 C.ar        1 MOL      -0.0682
     29 CD2        18.0777   13.4759   19.9167 C.ar        1 MOL      -0.0682
     30 CE         18.3314   12.7382   18.7441 C.ar        1 MOL      -0.0685
     31 C          17.1536    9.6647   22.7189 C.2         1 MOL       0.0723
     32 O          18.4172    9.3607   22.3498 O.co2       1 MOL      -0.5642
     33 OXT        16.7506    9.1024   23.8926 O.co2       1 MOL      -0.5642
     34 H1          9.2770   10.8039   25.1381 H           1 MOL       0.2010
     35 H2         10.1182   10.4012   23.7567 H           1 MOL       0.2010
     36 H3          8.4656   10.2014   23.8163 H           1 MOL       0.2010
     37 H4          8.0855   12.4849   23.9965 H           1 MOL       0.1026
     38 H5         10.2240   12.9354   25.2581 H           1 MOL       0.0363
     39 H6          9.7652   14.1447   24.0818 H           1 MOL       0.0363
     40 H7         12.2476   13.5909   24.2698 H           1 MOL       0.0505
     41 H8         11.5556   13.7281   22.6654 H           1 MOL       0.0505
     42 H9         12.0228   12.0720   21.3111 H           1 MOL       0.1883
     43 H10        12.0445    9.3843   21.8804 H           1 MOL       0.0808
     44 H11        12.8906    9.0414   19.6652 H           1 MOL       0.0426
     45 H12        13.5319   10.6696   19.5351 H           1 MOL       0.0426
     46 H13        12.3788   11.8766   17.6565 H           1 MOL       0.0538
     47 H14        12.1109   12.7822   19.1430 H           1 MOL       0.0538
     48 H15        10.0486   14.0680   19.4439 H           1 MOL       0.0557
     49 H16        10.5180   11.7198   15.9638 H           1 MOL       0.0557
     50 H17         8.1721   15.1901   18.4218 H           1 MOL       0.0599
     51 H18         8.6430   12.8631   14.9551 H           1 MOL       0.0599
     52 H19         7.4709   14.6048   16.1747 H           1 MOL       0.0559
     53 H20        14.7525   11.4891   21.2016 H           1 MOL       0.1901
     54 H21        16.3702   11.5638   22.9761 H           1 MOL       0.0887
     55 H22        17.0896    9.7812   19.7194 H           1 MOL       0.0560
     56 H23        17.2974   13.4082   21.8644 H           1 MOL       0.0560
     57 H24        18.1489   10.8485   17.8269 H           1 MOL       0.0600
     58 H25        18.3203   14.4672   19.9488 H           1 MOL       0.0600
     59 H26        18.7663   13.1928   17.9378 H           1 MOL       0.0560
@<TRIPOS>BOND
     1     2     1   1
     2     2     5   1
     3     2     3   1
     4     3     4  ar
     5     3     9  ar
     6     5     6   1
     7     6     7   1
     8     7     8   2
     9     7    10  am
    10    10    11   1
    11    11    12   1
    12    11    21   1
    13    12    13   1
    14    13    14   1
    15    14    15   1
    16    15    16  ar
    17    15    17  ar
    18    16    18  ar
    19    17    19  ar
    20    18    20  ar
    21    19    20  ar
    22    21    22   2
    23    21    23  am
    24    23    24   1
    25    24    25   1
    26    24    31   1
    27    25    26  ar
    28    25    27  ar
    29    26    28  ar
    30    27    29  ar
    31    28    30  ar
    32    29    30  ar
    33    31    32  ar
    34    31    33  ar
    35     1    34   1
    36     1    35   1
    37     1    36   1
    38     2    37   1
    39     5    38   1
    40     5    39   1
    41     6    40   1
    42     6    41   1
    43    10    42   1
    44    11    43   1
    45    12    44   1
    46    12    45   1
    47    14    46   1
    48    14    47   1
    49    16    48   1
    50    17    49   1
    51    18    50   1
    52    19    51   1
    53    20    52   1
    54    23    53   1
    55    24    54   1
    56    26    55   1
    57    27    56   1
    58    28    57   1
    59    29    58   1
    60    30    59   1
@<TRIPOS>SUBSTRUCTURE
     1  MOL      2

