@<TRIPOS>MOLECULE
10gs_ligand_001
    59    60
SMALL
GAST_HUCK
****
This file was generated by PARSER (from files_GN.cpp)

@<TRIPOS>ATOM
      1 N          15.7733   10.2271   29.7404 N.4         1 MOL       0.2328
      2 CA         15.9884   11.4064   28.8788 C.3         1 MOL       0.0304
      3 C          15.0126   12.4461   29.2917 C.2         1 MOL       0.0846
      4 O          15.2156   13.1226   30.4493 O.co2       1 MOL      -0.5643
      5 CB         15.9805   11.1101   27.3298 C.3         1 MOL       0.0193
      6 CG         15.7633    9.6285   26.9189 C.3         1 MOL       0.0441
      7 CD         15.6926    9.3894   25.4820 C.2         1 MOL       0.1785
      8 OE1        16.5118    8.6387   24.9654 O.2         1 MOL      -0.3969
      9 OXT        13.7668   12.4727   28.7724 O.co2       1 MOL      -0.5643
     10 N          14.6888    9.9083   24.7844 N.am        1 MOL      -0.2648
     11 CA         14.3502    9.6399   23.4043 C.3         1 MOL       0.1400
     12 CB         13.0979   10.4812   22.9661 C.3         1 MOL       0.0361
     13 SG         11.6949    9.4904   22.3867 S.3         1 MOL      -0.1422
     14 CD         11.0267    8.8648   23.9588 C.3         1 MOL       0.0276
     15 CE         11.1583    7.3901   24.0540 C.ar        1 MOL      -0.0332
     16 CZ1        11.9870    6.7917   25.0296 C.ar        1 MOL      -0.0595
     17 CZ2        10.4290    6.5489   23.1763 C.ar        1 MOL      -0.0595
     18 CT1        12.0981    5.3908   25.1170 C.ar        1 MOL      -0.0685
     19 CT2        10.5476    5.1478   23.2568 C.ar        1 MOL      -0.0685
     20 CH         11.3847    4.5676   24.2293 C.ar        1 MOL      -0.0687
     21 C          15.4784    9.8535   22.5008 C.2         1 MOL       0.2059
     22 O          15.9406    8.8927   21.8971 O.2         1 MOL      -0.3942
     23 N          16.0055   11.0703   22.3501 N.am        1 MOL      -0.2587
     24 CA         17.1864   11.4487   21.6022 C.3         1 MOL       0.1278
     25 CB         17.0124   11.5771   20.1125 C.ar        1 MOL      -0.0049
     26 CG1        15.8926   11.0645   19.3980 C.ar        1 MOL      -0.0564
     27 CG2        17.9765   12.3005   19.3605 C.ar        1 MOL      -0.0564
     28 CD1        15.7706   11.2286   18.0100 C.ar        1 MOL      -0.0682
     29 CD2        17.8614   12.4562   17.9632 C.ar        1 MOL      -0.0682
     30 CE         16.7572   11.9174   17.2901 C.ar        1 MOL      -0.0685
     31 C          18.3889   10.6434   21.9800 C.2         1 MOL       0.0723
     32 O          19.6098   10.9551   21.4990 O.co2       1 MOL      -0.5642
     33 OXT        18.3667    9.6690   22.9163 O.co2       1 MOL      -0.5642
     34 H1         16.5262    9.5403   29.6356 H           1 MOL       0.2010
     35 H2         14.8825    9.7863   29.5037 H           1 MOL       0.2010
     36 H3         15.7506   10.5180   30.7210 H           1 MOL       0.2010
     37 H4         16.9756   11.7923   29.1409 H           1 MOL       0.1026
     38 H5         16.9409   11.4297   26.9203 H           1 MOL       0.0363
     39 H6         15.2265   11.7267   26.8346 H           1 MOL       0.0363
     40 H7         14.8230    9.2718   27.3446 H           1 MOL       0.0505
     41 H8         16.5747    9.0326   27.3544 H           1 MOL       0.0505
     42 H9         14.0795   10.4816   25.2728 H           1 MOL       0.1883
     43 H10        14.0781    8.5792   23.3722 H           1 MOL       0.0808
     44 H11        13.3481   11.1521   22.1377 H           1 MOL       0.0426
     45 H12        12.7435   11.1262   23.7728 H           1 MOL       0.0426
     46 H13         9.9666    9.1296   23.9988 H           1 MOL       0.0538
     47 H14        11.5073    9.3641   24.8060 H           1 MOL       0.0538
     48 H15        12.5186    7.3688   25.6858 H           1 MOL       0.0557
     49 H16         9.8091    6.9511   22.4692 H           1 MOL       0.0557
     50 H17        12.7049    4.9680   25.8258 H           1 MOL       0.0599
     51 H18        10.0259    4.5523   22.6131 H           1 MOL       0.0599
     52 H19        11.4699    3.5531   24.2887 H           1 MOL       0.0559
     53 H20        15.5694   11.7887   22.8437 H           1 MOL       0.1901
     54 H21        17.3913   12.4635   21.9537 H           1 MOL       0.0887
     55 H22        15.1425   10.5742   19.8821 H           1 MOL       0.0560
     56 H23        18.7724   12.7387   19.8232 H           1 MOL       0.0560
     57 H24        14.9561   10.8519   17.5220 H           1 MOL       0.0600
     58 H25        18.5778   12.9748   17.4470 H           1 MOL       0.0600
     59 H26        16.6634   12.0399   16.2767 H           1 MOL       0.0560
@<TRIPOS>BOND
     1     2     1   1
     2     2     5   1
     3     2     3   1
     4     3     4  ar
     5     3     9  ar
     6     5     6   1
     7     6     7   1
     8     7     8   2
     9     7    10  am
    10    10    11   1
    11    11    12   1
    12    11    21   1
    13    12    13   1
    14    13    14   1
    15    14    15   1
    16    15    16  ar
    17    15    17  ar
    18    16    18  ar
    19    17    19  ar
    20    18    20  ar
    21    19    20  ar
    22    21    22   2
    23    21    23  am
    24    23    24   1
    25    24    25   1
    26    24    31   1
    27    25    26  ar
    28    25    27  ar
    29    26    28  ar
    30    27    29  ar
    31    28    30  ar
    32    29    30  ar
    33    31    32  ar
    34    31    33  ar
    35     1    34   1
    36     1    35   1
    37     1    36   1
    38     2    37   1
    39     5    38   1
    40     5    39   1
    41     6    40   1
    42     6    41   1
    43    10    42   1
    44    11    43   1
    45    12    44   1
    46    12    45   1
    47    14    46   1
    48    14    47   1
    49    16    48   1
    50    17    49   1
    51    18    50   1
    52    19    51   1
    53    20    52   1
    54    23    53   1
    55    24    54   1
    56    26    55   1
    57    27    56   1
    58    28    57   1
    59    29    58   1
    60    30    59   1
@<TRIPOS>SUBSTRUCTURE
     1  MOL      2

