@<TRIPOS>MOLECULE
10gs_ligand_027
    59    60
SMALL
GAST_HUCK
****
This file was generated by PARSER (from files_GN.cpp)

@<TRIPOS>ATOM
      1 N          11.5021   16.5154   27.5062 N.4         1 MOL       0.2328
      2 CA         11.8576   16.0805   26.1412 C.3         1 MOL       0.0304
      3 C          11.8151   17.2671   25.2564 C.2         1 MOL       0.0846
      4 O          12.7765   18.2096   25.3737 O.co2       1 MOL      -0.5643
      5 CB         10.9771   14.8632   25.7215 C.3         1 MOL       0.0193
      6 CG         11.1819   14.3894   24.2539 C.3         1 MOL       0.0441
      7 CD         10.6394   13.0679   23.9788 C.2         1 MOL       0.1785
      8 OE1         9.4595   12.8490   24.2011 O.2         1 MOL      -0.3969
      9 OXT        10.8434   17.4750   24.3393 O.co2       1 MOL      -0.5643
     10 N          11.4201   12.1492   23.4105 N.am        1 MOL      -0.2648
     11 CA         11.1109   10.7864   23.0644 C.3         1 MOL       0.1400
     12 CB         11.2849   10.5889   21.5280 C.3         1 MOL       0.0361
     13 SG         11.0888    8.9060   20.8735 S.3         1 MOL      -0.1422
     14 CD          9.4410    8.4325   21.4680 C.3         1 MOL       0.0276
     15 CE          9.5017    7.7562   22.7902 C.ar        1 MOL      -0.0332
     16 CZ1        10.2103    6.5371   22.9395 C.ar        1 MOL      -0.0595
     17 CZ2         8.8447    8.2936   23.9233 C.ar        1 MOL      -0.0595
     18 CT1        10.2988    5.9011   24.1898 C.ar        1 MOL      -0.0685
     19 CT2         8.9362    7.6583   25.1786 C.ar        1 MOL      -0.0685
     20 CH          9.6681    6.4684   25.3144 C.ar        1 MOL      -0.0687
     21 C          11.9704    9.9237   23.8693 C.2         1 MOL       0.2059
     22 O          11.4562    9.1606   24.6849 O.2         1 MOL      -0.3942
     23 N          13.2875   10.0066   23.7383 N.am        1 MOL      -0.2587
     24 CA         14.2664    9.3302   24.5389 C.3         1 MOL       0.1278
     25 CB         14.5132   10.0813   25.8052 C.ar        1 MOL      -0.0049
     26 CG1        14.4774    9.4050   27.0506 C.ar        1 MOL      -0.0564
     27 CG2        14.8113   11.4679   25.8032 C.ar        1 MOL      -0.0564
     28 CD1        14.7449   10.0875   28.2509 C.ar        1 MOL      -0.0682
     29 CD2        15.0669   12.1557   27.0070 C.ar        1 MOL      -0.0682
     30 CE         15.0331   11.4631   28.2323 C.ar        1 MOL      -0.0685
     31 C          15.5329    9.1359   23.8002 C.2         1 MOL       0.0723
     32 O          15.5330    9.0179   22.4519 O.co2       1 MOL      -0.5642
     33 OXT        16.6100    8.6533   24.4579 O.co2       1 MOL      -0.5642
     34 H1         11.5441   15.7279   28.1570 H           1 MOL       0.2010
     35 H2         10.5563   16.8996   27.5095 H           1 MOL       0.2010
     36 H3         12.1586   17.2355   27.8198 H           1 MOL       0.2010
     37 H4         12.8964   15.7368   26.1830 H           1 MOL       0.1026
     38 H5          9.9215   15.1140   25.8729 H           1 MOL       0.0363
     39 H6         11.2180   14.0355   26.3974 H           1 MOL       0.0363
     40 H7         12.2529   14.4051   24.0315 H           1 MOL       0.0505
     41 H8         10.6974   15.0862   23.5733 H           1 MOL       0.0505
     42 H9         12.3278   12.4308   23.2165 H           1 MOL       0.1883
     43 H10        10.0590   10.5734   23.2982 H           1 MOL       0.0808
     44 H11        12.2919   10.9115   21.2379 H           1 MOL       0.0426
     45 H12        10.5762   11.2410   21.0116 H           1 MOL       0.0426
     46 H13         9.0278    7.7319   20.7437 H           1 MOL       0.0538
     47 H14         8.7872    9.3072   21.4776 H           1 MOL       0.0538
     48 H15        10.6699    6.1069   22.1342 H           1 MOL       0.0557
     49 H16         8.3051    9.1574   23.8484 H           1 MOL       0.0557
     50 H17        10.8222    5.0276   24.2865 H           1 MOL       0.0599
     51 H18         8.4672    8.0637   25.9914 H           1 MOL       0.0599
     52 H19         9.7376    6.0083   26.2249 H           1 MOL       0.0559
     53 H20        13.6222   10.6223   23.0644 H           1 MOL       0.1901
     54 H21        13.9014    8.3215   24.7437 H           1 MOL       0.0887
     55 H22        14.2760    8.4046   27.0893 H           1 MOL       0.0560
     56 H23        14.8543   11.9845   24.9231 H           1 MOL       0.0560
     57 H24        14.7288    9.5806   29.1397 H           1 MOL       0.0600
     58 H25        15.2698   13.1581   26.9953 H           1 MOL       0.0600
     59 H26        15.2212   11.9586   29.1068 H           1 MOL       0.0560
@<TRIPOS>BOND
     1     2     1   1
     2     2     5   1
     3     2     3   1
     4     3     4  ar
     5     3     9  ar
     6     5     6   1
     7     6     7   1
     8     7     8   2
     9     7    10  am
    10    10    11   1
    11    11    12   1
    12    11    21   1
    13    12    13   1
    14    13    14   1
    15    14    15   1
    16    15    16  ar
    17    15    17  ar
    18    16    18  ar
    19    17    19  ar
    20    18    20  ar
    21    19    20  ar
    22    21    22   2
    23    21    23  am
    24    23    24   1
    25    24    25   1
    26    24    31   1
    27    25    26  ar
    28    25    27  ar
    29    26    28  ar
    30    27    29  ar
    31    28    30  ar
    32    29    30  ar
    33    31    32  ar
    34    31    33  ar
    35     1    34   1
    36     1    35   1
    37     1    36   1
    38     2    37   1
    39     5    38   1
    40     5    39   1
    41     6    40   1
    42     6    41   1
    43    10    42   1
    44    11    43   1
    45    12    44   1
    46    12    45   1
    47    14    46   1
    48    14    47   1
    49    16    48   1
    50    17    49   1
    51    18    50   1
    52    19    51   1
    53    20    52   1
    54    23    53   1
    55    24    54   1
    56    26    55   1
    57    27    56   1
    58    28    57   1
    59    29    58   1
    60    30    59   1
@<TRIPOS>SUBSTRUCTURE
     1  MOL      2

