@<TRIPOS>MOLECULE
10gs_ligand_008
    59    60
SMALL
GAST_HUCK
****
This file was generated by PARSER (from files_GN.cpp)

@<TRIPOS>ATOM
      1 N          16.7067   11.8163   21.7456 N.4         1 MOL       0.2328
      2 CA         16.2435   10.4455   22.0057 C.3         1 MOL       0.0304
      3 C          17.3049    9.6853   22.6968 C.2         1 MOL       0.0846
      4 O          18.5659    9.5772   22.2037 O.co2       1 MOL      -0.5643
      5 CB         15.7868    9.7404   20.6926 C.3         1 MOL       0.0193
      6 CG         14.3328   10.0746   20.2312 C.3         1 MOL       0.0441
      7 CD         13.3533    9.9542   21.2941 C.2         1 MOL       0.1785
      8 OE1        12.7242    8.9038   21.4150 O.2         1 MOL      -0.3969
      9 OXT        17.0101    9.0369   23.8722 O.co2       1 MOL      -0.5643
     10 N          13.1872   10.9635   22.1375 N.am        1 MOL      -0.2648
     11 CA         12.2742   11.0561   23.2429 C.3         1 MOL       0.1400
     12 CB         10.7753   11.0323   22.7769 C.3         1 MOL       0.0361
     13 SG         10.1737   12.5858   22.0567 S.3         1 MOL      -0.1422
     14 CD         11.2169   12.8041   20.5915 C.3         1 MOL       0.0276
     15 CE         10.3829   13.0778   19.3950 C.ar        1 MOL      -0.0332
     16 CZ1         9.5484   14.2248   19.3233 C.ar        1 MOL      -0.0595
     17 CZ2        10.3894   12.1829   18.2979 C.ar        1 MOL      -0.0595
     18 CT1         8.7318   14.4485   18.1959 C.ar        1 MOL      -0.0685
     19 CT2         9.5826   12.4144   17.1711 C.ar        1 MOL      -0.0685
     20 CH          8.7532   13.5443   17.1203 C.ar        1 MOL      -0.0687
     21 C          12.6249   10.1030   24.3018 C.2         1 MOL       0.2059
     22 O          11.9088    9.1406   24.5598 O.2         1 MOL      -0.3942
     23 N          13.7243   10.3323   25.0071 N.am        1 MOL      -0.2587
     24 CA         14.1603    9.6615   26.2049 C.3         1 MOL       0.1278
     25 CB         14.9063   10.5530   27.1584 C.ar        1 MOL      -0.0049
     26 CG1        15.2759   10.0370   28.4255 C.ar        1 MOL      -0.0564
     27 CG2        15.2406   11.9055   26.8785 C.ar        1 MOL      -0.0564
     28 CD1        15.9524   10.8292   29.3737 C.ar        1 MOL      -0.0682
     29 CD2        15.9109   12.6995   27.8222 C.ar        1 MOL      -0.0682
     30 CE         16.2636   12.1688   29.0719 C.ar        1 MOL      -0.0685
     31 C          14.9215    8.4646   25.7775 C.2         1 MOL       0.0723
     32 O          14.2835    7.2710   25.6972 O.co2       1 MOL      -0.5642
     33 OXT        16.2825    8.4571   25.7057 O.co2       1 MOL      -0.5642
     34 H1         15.9506   12.3545   21.2862 H           1 MOL       0.2010
     35 H2         17.5386   11.7942   21.1477 H           1 MOL       0.2010
     36 H3         16.9305   12.2472   22.6485 H           1 MOL       0.2010
     37 H4         15.3822   10.5153   22.6804 H           1 MOL       0.1026
     38 H5         15.8618    8.6516   20.8321 H           1 MOL       0.0363
     39 H6         16.4722   10.0122   19.8839 H           1 MOL       0.0363
     40 H7         14.0546    9.3879   19.4217 H           1 MOL       0.0505
     41 H8         14.3134   11.0801   19.8010 H           1 MOL       0.0505
     42 H9         13.7866   11.7127   22.0272 H           1 MOL       0.1883
     43 H10        12.4334   12.0427   23.6902 H           1 MOL       0.0808
     44 H11        10.1265   10.8734   23.6409 H           1 MOL       0.0426
     45 H12        10.5929   10.2150   22.0796 H           1 MOL       0.0426
     46 H13        11.8244   11.9121   20.4352 H           1 MOL       0.0538
     47 H14        11.8991   13.6369   20.7649 H           1 MOL       0.0538
     48 H15         9.5158   14.8881   20.0987 H           1 MOL       0.0557
     49 H16        10.9774   11.3468   18.3174 H           1 MOL       0.0557
     50 H17         8.1190   15.2640   18.1624 H           1 MOL       0.0599
     51 H18         9.5971   11.7512   16.3914 H           1 MOL       0.0599
     52 H19         8.1615   13.7088   16.3008 H           1 MOL       0.0559
     53 H20        14.2769   11.0734   24.7080 H           1 MOL       0.1901
     54 H21        13.2789    9.3070   26.7581 H           1 MOL       0.0887
     55 H22        15.0544    9.0764   28.6718 H           1 MOL       0.0560
     56 H23        14.9902   12.3384   25.9863 H           1 MOL       0.0560
     57 H24        16.2074   10.4383   30.2814 H           1 MOL       0.0600
     58 H25        16.1308   13.6724   27.6068 H           1 MOL       0.0600
     59 H26        16.7411   12.7511   29.7645 H           1 MOL       0.0560
@<TRIPOS>BOND
     1     2     1   1
     2     2     5   1
     3     2     3   1
     4     3     4  ar
     5     3     9  ar
     6     5     6   1
     7     6     7   1
     8     7     8   2
     9     7    10  am
    10    10    11   1
    11    11    12   1
    12    11    21   1
    13    12    13   1
    14    13    14   1
    15    14    15   1
    16    15    16  ar
    17    15    17  ar
    18    16    18  ar
    19    17    19  ar
    20    18    20  ar
    21    19    20  ar
    22    21    22   2
    23    21    23  am
    24    23    24   1
    25    24    25   1
    26    24    31   1
    27    25    26  ar
    28    25    27  ar
    29    26    28  ar
    30    27    29  ar
    31    28    30  ar
    32    29    30  ar
    33    31    32  ar
    34    31    33  ar
    35     1    34   1
    36     1    35   1
    37     1    36   1
    38     2    37   1
    39     5    38   1
    40     5    39   1
    41     6    40   1
    42     6    41   1
    43    10    42   1
    44    11    43   1
    45    12    44   1
    46    12    45   1
    47    14    46   1
    48    14    47   1
    49    16    48   1
    50    17    49   1
    51    18    50   1
    52    19    51   1
    53    20    52   1
    54    23    53   1
    55    24    54   1
    56    26    55   1
    57    27    56   1
    58    28    57   1
    59    29    58   1
    60    30    59   1
@<TRIPOS>SUBSTRUCTURE
     1  MOL      2

