@<TRIPOS>MOLECULE
1a30_ligand_064
    49    48
SMALL
GAST_HUCK
****
This file was generated by PARSER (from files_GN.cpp)

@<TRIPOS>ATOM
      1 N          13.8678   25.4823    4.1460 N.4         1 MOL       0.2380
      2 CA         12.5000   25.0544    4.4723 C.3         1 MOL       0.0665
      3 C          12.6004   23.9245    5.3913 C.2         1 MOL       0.2269
      4 O          12.0820   22.8522    5.1136 O.2         1 MOL      -0.3907
      5 CB         11.7261   24.7887    3.1410 C.3         1 MOL       0.0194
      6 CG         10.1843   24.6697    3.3117 C.3         1 MOL       0.0075
      7 CD          9.5335   24.0684    2.1330 C.2         1 MOL       0.0351
      8 OE1         9.9095   24.4279    0.8853 O.co2       1 MOL      -0.5690
      9 OE2         8.5969   23.1015    2.2741 O.co2       1 MOL      -0.5690
     10 N          13.2808   24.0642    6.5284 N.am        1 MOL      -0.2595
     11 CA         13.4022   23.1422    7.6340 C.3         1 MOL       0.1424
     12 C          14.2286   21.9433    7.4172 C.2         1 MOL       0.2051
     13 O          14.5486   21.5836    6.2962 O.2         1 MOL      -0.3943
     14 CB         12.0366   22.8493    8.3365 C.3         1 MOL       0.0406
     15 CG         10.8576   22.7303    7.4525 C.2         1 MOL       0.0393
     16 OD1        10.1257   23.8255    7.1445 O.co2       1 MOL      -0.5688
     17 OD2        10.5714   21.5774    6.8035 O.co2       1 MOL      -0.5688
     18 N          14.6983   21.2903    8.4803 N.am        1 MOL      -0.2694
     19 CA         15.5079   20.0988    8.5106 C.3         1 MOL       0.0946
     20 C          15.0394   19.2010    9.5898 C.2         1 MOL       0.0601
     21 O          15.5157   17.9391    9.6691 O.co2       1 MOL      -0.5666
     22 CB         17.0093   20.4631    8.7314 C.3         1 MOL      -0.0156
     23 CG         17.7211   21.2144    7.5557 C.3         1 MOL      -0.0431
     24 CD1        19.0319   21.8911    8.0445 C.3         1 MOL      -0.0625
     25 CD2        18.0219   20.2806    6.3485 C.3         1 MOL      -0.0625
     26 OXT        14.2611   19.6365   10.6062 O.co2       1 MOL      -0.5666
     27 H1         13.8421   26.2986    3.5338 H           1 MOL       0.2015
     28 H2         14.3454   24.7282    3.6537 H           1 MOL       0.2015
     29 H3         14.3815   25.7316    4.9905 H           1 MOL       0.2015
     30 H4         12.0174   25.8890    4.9907 H           1 MOL       0.1099
     31 H5         12.1271   23.8814    2.6875 H           1 MOL       0.0363
     32 H6         11.9195   25.6041    2.4379 H           1 MOL       0.0363
     33 H7          9.7544   25.6614    3.4715 H           1 MOL       0.0434
     34 H8          9.9441   24.0642    4.1882 H           1 MOL       0.0434
     35 H9         13.7302   24.9163    6.6458 H           1 MOL       0.1886
     36 H10        13.9658   23.7400    8.3593 H           1 MOL       0.0819
     37 H11        11.8334   23.6640    9.0385 H           1 MOL       0.0478
     38 H12        12.1121   21.9390    8.9389 H           1 MOL       0.0478
     39 H13        14.4758   21.6689    9.3466 H           1 MOL       0.1875
     40 H14        15.4072   19.5406    7.5768 H           1 MOL       0.0726
     41 H15        17.5805   19.5508    8.9350 H           1 MOL       0.0308
     42 H16        17.0700   21.0825    9.6333 H           1 MOL       0.0308
     43 H17        17.0582   22.0115    7.2049 H           1 MOL       0.0297
     44 H18        19.5105   22.4330    7.2287 H           1 MOL       0.0232
     45 H19        19.7324   21.1459    8.4253 H           1 MOL       0.0232
     46 H20        18.8155   22.6050    8.8387 H           1 MOL       0.0232
     47 H21        17.0992   19.8920    5.9143 H           1 MOL       0.0232
     48 H22        18.6431   19.4357    6.6581 H           1 MOL       0.0232
     49 H23        18.5504   20.8260    5.5643 H           1 MOL       0.0232
@<TRIPOS>BOND
     1     3     2   1
     2     2     5   1
     3     2     1   1
     4     5     6   1
     5     6     7   1
     6     7     8  ar
     7     7     9  ar
     8     3     4   2
     9    12    11   1
    10    11    14   1
    11    11    10   1
    12    14    15   1
    13    15    16  ar
    14    15    17  ar
    15    12    13   2
    16    19    20   1
    17    19    22   1
    18    18    19   1
    19    22    23   1
    20    23    25   1
    21    23    24   1
    22    20    26  ar
    23    20    21  ar
    24    10     3  am
    25    12    18  am
    26     1    27   1
    27     1    28   1
    28     1    29   1
    29     2    30   1
    30     5    31   1
    31     5    32   1
    32     6    33   1
    33     6    34   1
    34    10    35   1
    35    11    36   1
    36    14    37   1
    37    14    38   1
    38    18    39   1
    39    19    40   1
    40    22    41   1
    41    22    42   1
    42    23    43   1
    43    24    44   1
    44    24    45   1
    45    24    46   1
    46    25    47   1
    47    25    48   1
    48    25    49   1
@<TRIPOS>SUBSTRUCTURE
     1  MOL      2

