@<TRIPOS>MOLECULE
1a30_ligand_045
    49    48
SMALL
GAST_HUCK
****
This file was generated by PARSER (from files_GN.cpp)

@<TRIPOS>ATOM
      1 N           7.5054   27.6957   10.2439 N.4         1 MOL       0.2380
      2 CA          8.4437   27.9347    9.1381 C.3         1 MOL       0.0665
      3 C           7.7540   27.8849    7.8571 C.2         1 MOL       0.2269
      4 O           8.1061   28.6788    6.9879 O.2         1 MOL      -0.3907
      5 CB          9.7028   27.0107    9.2067 C.3         1 MOL       0.0194
      6 CG          9.5311   25.5877    9.8081 C.3         1 MOL       0.0075
      7 CD          8.5975   24.7084    9.0801 C.2         1 MOL       0.0351
      8 OE1         8.9759   24.1127    7.9244 O.co2       1 MOL      -0.5690
      9 OE2         7.3691   24.4354    9.5768 O.co2       1 MOL      -0.5690
     10 N           6.8406   26.9569    7.5881 N.am        1 MOL      -0.2595
     11 CA          6.1408   26.7539    6.3407 C.3         1 MOL       0.1424
     12 C           7.0280   26.6154    5.1784 C.2         1 MOL       0.2051
     13 O           8.2428   26.6716    5.3218 O.2         1 MOL      -0.3943
     14 CB          5.0200   27.8383    6.1513 C.3         1 MOL       0.0406
     15 CG          3.8236   27.6786    7.0087 C.2         1 MOL       0.0393
     16 OD1         3.4280   26.4439    7.4089 O.co2       1 MOL      -0.5688
     17 OD2         2.8566   28.6188    6.9057 O.co2       1 MOL      -0.5688
     18 N           6.5082   26.3438    3.9847 N.am        1 MOL      -0.2694
     19 CA          7.1827   26.3027    2.7179 C.3         1 MOL       0.0946
     20 C           7.6863   27.6448    2.3240 C.2         1 MOL       0.0601
     21 O           7.9935   27.8973    1.0339 O.co2       1 MOL      -0.5666
     22 CB          6.2199   25.6802    1.6569 C.3         1 MOL      -0.0156
     23 CG          4.8552   26.4332    1.4348 C.3         1 MOL      -0.0431
     24 CD1         4.6722   26.9207   -0.0307 C.3         1 MOL      -0.0625
     25 CD2         3.6324   25.5800    1.8764 C.3         1 MOL      -0.0625
     26 OXT         8.3076   28.4341    3.2335 O.co2       1 MOL      -0.5666
     27 H1          7.9853   27.8223   11.1395 H           1 MOL       0.2015
     28 H2          7.1405   26.7431   10.1819 H           1 MOL       0.2015
     29 H3          6.7359   28.3643   10.1781 H           1 MOL       0.2015
     30 H4          8.7997   28.9596    9.2937 H           1 MOL       0.1099
     31 H5         10.4352   27.5161    9.8416 H           1 MOL       0.0363
     32 H6         10.1625   26.9322    8.2168 H           1 MOL       0.0363
     33 H7          9.2097   25.6781   10.8495 H           1 MOL       0.0434
     34 H8         10.5076   25.0959    9.8144 H           1 MOL       0.0434
     35 H9          6.6220   26.3379    8.3052 H           1 MOL       0.1886
     36 H10         5.6385   25.7885    6.4317 H           1 MOL       0.0819
     37 H11         4.6556   27.8399    5.1207 H           1 MOL       0.0478
     38 H12         5.4345   28.8335    6.3397 H           1 MOL       0.0478
     39 H13         5.5492   26.2005    3.9699 H           1 MOL       0.1875
     40 H14         8.0449   25.6377    2.8054 H           1 MOL       0.0726
     41 H15         6.0284   24.6485    1.9638 H           1 MOL       0.0308
     42 H16         6.7650   25.5972    0.7146 H           1 MOL       0.0308
     43 H17         4.8396   27.3341    2.0545 H           1 MOL       0.0297
     44 H18         3.7320   27.4666   -0.1384 H           1 MOL       0.0232
     45 H19         4.6648   26.0751   -0.7227 H           1 MOL       0.0232
     46 H20         5.4866   27.5931   -0.3090 H           1 MOL       0.0232
     47 H21         3.7445   25.2694    2.9171 H           1 MOL       0.0232
     48 H22         3.5413   24.6861    1.2550 H           1 MOL       0.0232
     49 H23         2.7089   26.1575    1.7939 H           1 MOL       0.0232
@<TRIPOS>BOND
     1     3     2   1
     2     2     5   1
     3     2     1   1
     4     5     6   1
     5     6     7   1
     6     7     8  ar
     7     7     9  ar
     8     3     4   2
     9    12    11   1
    10    11    14   1
    11    11    10   1
    12    14    15   1
    13    15    16  ar
    14    15    17  ar
    15    12    13   2
    16    19    20   1
    17    19    22   1
    18    18    19   1
    19    22    23   1
    20    23    25   1
    21    23    24   1
    22    20    26  ar
    23    20    21  ar
    24    10     3  am
    25    12    18  am
    26     1    27   1
    27     1    28   1
    28     1    29   1
    29     2    30   1
    30     5    31   1
    31     5    32   1
    32     6    33   1
    33     6    34   1
    34    10    35   1
    35    11    36   1
    36    14    37   1
    37    14    38   1
    38    18    39   1
    39    19    40   1
    40    22    41   1
    41    22    42   1
    42    23    43   1
    43    24    44   1
    44    24    45   1
    45    24    46   1
    46    25    47   1
    47    25    48   1
    48    25    49   1
@<TRIPOS>SUBSTRUCTURE
     1  MOL      2

