@<TRIPOS>MOLECULE
1a30_ligand_001
    49    48
SMALL
GAST_HUCK
****
This file was generated by PARSER (from files_GN.cpp)

@<TRIPOS>ATOM
      1 N          13.9373   24.6896    4.7030 N.4         1 MOL       0.2380
      2 CA         14.3248   23.6434    5.6691 C.3         1 MOL       0.0665
      3 C          14.3058   22.3307    5.0380 C.2         1 MOL       0.2269
      4 O          13.2971   21.9687    4.4452 O.2         1 MOL      -0.3907
      5 CB         13.5184   23.7635    7.0095 C.3         1 MOL       0.0194
      6 CG         12.5064   22.6484    7.4055 C.3         1 MOL       0.0075
      7 CD         11.4357   22.3486    6.4411 C.2         1 MOL       0.0351
      8 OE1        11.0389   23.2475    5.5056 O.co2       1 MOL      -0.5690
      9 OE2        10.9426   21.0920    6.3615 O.co2       1 MOL      -0.5690
     10 N          15.3675   21.5411    5.1242 N.am        1 MOL      -0.2595
     11 CA         15.4993   20.2086    4.6082 C.3         1 MOL       0.1424
     12 C          16.8032   19.7451    5.0749 C.2         1 MOL       0.2051
     13 O          17.7978   20.1373    4.4755 O.2         1 MOL      -0.3943
     14 CB         15.2855   20.1603    3.0574 C.3         1 MOL       0.0406
     15 CG         16.0529   19.1247    2.3317 C.2         1 MOL       0.0393
     16 OD1        17.4029   19.2170    2.2324 O.co2       1 MOL      -0.5688
     17 OD2        15.4197   18.2250    1.5456 O.co2       1 MOL      -0.5688
     18 N          16.8853   18.9652    6.1494 N.am        1 MOL      -0.2694
     19 CA         18.0148   18.3827    6.8212 C.3         1 MOL       0.0946
     20 C          19.2970   19.1264    6.7789 C.2         1 MOL       0.0601
     21 O          20.2045   18.9890    7.7763 O.co2       1 MOL      -0.5666
     22 CB         18.1943   16.8724    6.4624 C.3         1 MOL      -0.0156
     23 CG         18.1364   16.4784    4.9413 C.3         1 MOL      -0.0431
     24 CD1        18.6839   15.0420    4.7018 C.3         1 MOL      -0.0625
     25 CD2        16.6966   16.5551    4.3556 C.3         1 MOL      -0.0625
     26 OXT        19.7115   19.7315    5.6415 O.co2       1 MOL      -0.5666
     27 H1         14.2293   25.5922    5.0833 H           1 MOL       0.2015
     28 H2         12.9278   24.6776    4.5504 H           1 MOL       0.2015
     29 H3         14.4277   24.5497    3.8125 H           1 MOL       0.2015
     30 H4         15.3637   23.9001    5.9091 H           1 MOL       0.1099
     31 H5         12.9896   24.7268    7.0382 H           1 MOL       0.0363
     32 H6         14.2464   23.8048    7.8341 H           1 MOL       0.0363
     33 H7         12.0188   22.9341    8.3485 H           1 MOL       0.0434
     34 H8         13.0614   21.7300    7.6017 H           1 MOL       0.0434
     35 H9         16.1266   21.8967    5.6224 H           1 MOL       0.1886
     36 H10        14.7230   19.5931    5.0714 H           1 MOL       0.0819
     37 H11        15.5344   21.1268    2.6269 H           1 MOL       0.0478
     38 H12        14.2205   19.9904    2.8704 H           1 MOL       0.0478
     39 H13        16.0290   18.6782    6.5153 H           1 MOL       0.1875
     40 H14        17.7145   18.4018    7.8809 H           1 MOL       0.0726
     41 H15        17.4272   16.3036    6.9964 H           1 MOL       0.0308
     42 H16        19.1514   16.5381    6.8863 H           1 MOL       0.0308
     43 H17        18.7623   17.1631    4.3669 H           1 MOL       0.0297
     44 H18        18.6473   14.7903    3.6364 H           1 MOL       0.0232
     45 H19        18.0987   14.3091    5.2557 H           1 MOL       0.0232
     46 H20        19.7312   14.9806    5.0247 H           1 MOL       0.0232
     47 H21        16.2787   17.5547    4.4580 H           1 MOL       0.0232
     48 H22        16.0295   15.8636    4.8879 H           1 MOL       0.0232
     49 H23        16.6968   16.3002    3.2967 H           1 MOL       0.0232
@<TRIPOS>BOND
     1     3     2   1
     2     2     5   1
     3     2     1   1
     4     5     6   1
     5     6     7   1
     6     7     8  ar
     7     7     9  ar
     8     3     4   2
     9    12    11   1
    10    11    14   1
    11    11    10   1
    12    14    15   1
    13    15    16  ar
    14    15    17  ar
    15    12    13   2
    16    19    20   1
    17    19    22   1
    18    18    19   1
    19    22    23   1
    20    23    25   1
    21    23    24   1
    22    20    26  ar
    23    20    21  ar
    24    10     3  am
    25    12    18  am
    26     1    27   1
    27     1    28   1
    28     1    29   1
    29     2    30   1
    30     5    31   1
    31     5    32   1
    32     6    33   1
    33     6    34   1
    34    10    35   1
    35    11    36   1
    36    14    37   1
    37    14    38   1
    38    18    39   1
    39    19    40   1
    40    22    41   1
    41    22    42   1
    42    23    43   1
    43    24    44   1
    44    24    45   1
    45    24    46   1
    46    25    47   1
    47    25    48   1
    48    25    49   1
@<TRIPOS>SUBSTRUCTURE
     1  MOL      2

