@<TRIPOS>MOLECULE
1a30_ligand_027
    49    48
SMALL
GAST_HUCK
****
This file was generated by PARSER (from files_GN.cpp)

@<TRIPOS>ATOM
      1 N          13.3645   25.5964    4.1342 N.4         1 MOL       0.2380
      2 CA         13.3762   24.8719    5.4160 C.3         1 MOL       0.0665
      3 C          13.0038   23.4782    5.2297 C.2         1 MOL       0.2269
      4 O          12.2918   22.9292    6.0577 O.2         1 MOL      -0.3907
      5 CB         12.5596   25.6946    6.4738 C.3         1 MOL       0.0194
      6 CG         11.0035   25.5290    6.4618 C.3         1 MOL       0.0075
      7 CD         10.4885   24.6094    7.5025 C.2         1 MOL       0.0351
      8 OE1        10.7525   24.8351    8.8087 O.co2       1 MOL      -0.5690
      9 OE2         9.6996   23.5521    7.1782 O.co2       1 MOL      -0.5690
     10 N          13.4047   22.8256    4.1404 N.am        1 MOL      -0.2595
     11 CA         12.9379   21.5420    3.6705 C.3         1 MOL       0.1424
     12 C          11.4771   21.5624    3.4662 C.2         1 MOL       0.2051
     13 O          10.7636   20.8137    4.1197 O.2         1 MOL      -0.3943
     14 CB         13.5558   20.3490    4.4854 C.3         1 MOL       0.0406
     15 CG         13.1504   20.2367    5.9064 C.2         1 MOL       0.0393
     16 OD1        11.8428   20.2149    6.2571 O.co2       1 MOL      -0.5688
     17 OD2        14.0787   20.0808    6.8819 O.co2       1 MOL      -0.5688
     18 N          10.9399   22.4808    2.6703 N.am        1 MOL      -0.2694
     19 CA          9.5397   22.7556    2.5233 C.3         1 MOL       0.0946
     20 C           8.8495   21.5425    2.0190 C.2         1 MOL       0.0601
     21 O           8.6396   20.4871    2.8415 O.co2       1 MOL      -0.5666
     22 CB          9.3262   24.0365    1.6550 C.3         1 MOL      -0.0156
     23 CG          7.9392   24.7466    1.7953 C.3         1 MOL      -0.0431
     24 CD1         7.9006   26.0208    0.9049 C.3         1 MOL      -0.0625
     25 CD2         6.7091   23.8444    1.4936 C.3         1 MOL      -0.0625
     26 OXT         8.3908   21.4402    0.7492 O.co2       1 MOL      -0.5666
     27 H1         13.8661   26.4749    4.2673 H           1 MOL       0.2015
     28 H2         12.4071   25.7712    3.8317 H           1 MOL       0.2015
     29 H3         13.8575   25.0594    3.4213 H           1 MOL       0.2015
     30 H4         14.4188   24.8652    5.7423 H           1 MOL       0.1099
     31 H5         12.7715   26.7554    6.2997 H           1 MOL       0.0363
     32 H6         12.9542   25.4708    7.4714 H           1 MOL       0.0363
     33 H7         10.6738   25.1826    5.4768 H           1 MOL       0.0434
     34 H8         10.5282   26.5016    6.6333 H           1 MOL       0.0434
     35 H9         13.9659   23.3236    3.5210 H           1 MOL       0.1886
     36 H10        13.3669   21.4315    2.6696 H           1 MOL       0.0819
     37 H11        14.6501   20.4475    4.4545 H           1 MOL       0.0478
     38 H12        13.3125   19.4029    3.9902 H           1 MOL       0.0478
     39 H13        11.5638   23.0610    2.2143 H           1 MOL       0.1875
     40 H14         9.1475   22.9744    3.5203 H           1 MOL       0.0726
     41 H15         9.5223   23.7979    0.6099 H           1 MOL       0.0308
     42 H16        10.0819   24.7671    1.9573 H           1 MOL       0.0308
     43 H17         7.8396   25.0833    2.8340 H           1 MOL       0.0297
     44 H18         6.9700   26.5720    1.0573 H           1 MOL       0.0232
     45 H19         7.9784   25.7583   -0.1493 H           1 MOL       0.0232
     46 H20         8.7257   26.6880    1.1585 H           1 MOL       0.0232
     47 H21         6.6268   23.0513    2.2357 H           1 MOL       0.0232
     48 H22         6.7929   23.3944    0.5051 H           1 MOL       0.0232
     49 H23         5.7845   24.4253    1.5376 H           1 MOL       0.0232
@<TRIPOS>BOND
     1     3     2   1
     2     2     5   1
     3     2     1   1
     4     5     6   1
     5     6     7   1
     6     7     8  ar
     7     7     9  ar
     8     3     4   2
     9    12    11   1
    10    11    14   1
    11    11    10   1
    12    14    15   1
    13    15    16  ar
    14    15    17  ar
    15    12    13   2
    16    19    20   1
    17    19    22   1
    18    18    19   1
    19    22    23   1
    20    23    25   1
    21    23    24   1
    22    20    26  ar
    23    20    21  ar
    24    10     3  am
    25    12    18  am
    26     1    27   1
    27     1    28   1
    28     1    29   1
    29     2    30   1
    30     5    31   1
    31     5    32   1
    32     6    33   1
    33     6    34   1
    34    10    35   1
    35    11    36   1
    36    14    37   1
    37    14    38   1
    38    18    39   1
    39    19    40   1
    40    22    41   1
    41    22    42   1
    42    23    43   1
    43    24    44   1
    44    24    45   1
    45    24    46   1
    46    25    47   1
    47    25    48   1
    48    25    49   1
@<TRIPOS>SUBSTRUCTURE
     1  MOL      2

