@<TRIPOS>MOLECULE
1a30_ligand_079
    49    48
SMALL
GAST_HUCK
****
This file was generated by PARSER (from files_GN.cpp)

@<TRIPOS>ATOM
      1 N           2.6895   22.0302    4.7097 N.4         1 MOL       0.2380
      2 CA          3.6670   22.1181    3.6205 C.3         1 MOL       0.0665
      3 C           4.5668   23.2324    3.8791 C.2         1 MOL       0.2269
      4 O           5.7743   23.0113    3.9516 O.2         1 MOL      -0.3907
      5 CB          2.9758   22.2416    2.2259 C.3         1 MOL       0.0194
      6 CG          2.5270   20.8954    1.5875 C.3         1 MOL       0.0075
      7 CD          1.1162   20.5488    1.8222 C.2         1 MOL       0.0351
      8 OE1         0.1315   21.2016    1.1574 O.co2       1 MOL      -0.5690
      9 OE2         0.7755   19.5796    2.6990 O.co2       1 MOL      -0.5690
     10 N           4.1108   24.4745    3.9890 N.am        1 MOL      -0.2595
     11 CA          4.8984   25.6616    4.1884 C.3         1 MOL       0.1424
     12 C           5.1949   25.8989    5.6084 C.2         1 MOL       0.2051
     13 O           4.3476   25.6973    6.4755 O.2         1 MOL      -0.3943
     14 CB          4.2594   26.8972    3.4933 C.3         1 MOL       0.0406
     15 CG          2.9682   27.3445    4.0519 C.2         1 MOL       0.0393
     16 OD1         2.8989   27.8393    5.3075 O.co2       1 MOL      -0.5688
     17 OD2         1.8927   27.4958    3.2411 O.co2       1 MOL      -0.5688
     18 N           6.4245   26.2778    5.9473 N.am        1 MOL      -0.2694
     19 CA          6.9701   26.6304    7.2356 C.3         1 MOL       0.0946
     20 C           7.6081   27.9619    7.1202 C.2         1 MOL       0.0601
     21 O           7.5071   28.6897    5.9883 O.co2       1 MOL      -0.5666
     22 CB          7.9502   25.4661    7.6545 C.3         1 MOL      -0.0156
     23 CG          9.2852   25.7992    8.4120 C.3         1 MOL      -0.0431
     24 CD1         9.0858   25.9851    9.9523 C.3         1 MOL      -0.0625
     25 CD2        10.3691   24.7075    8.1487 C.3         1 MOL      -0.0625
     26 OXT         8.1637   28.5669    8.1969 O.co2       1 MOL      -0.5666
     27 H1          2.1109   21.1947    4.5911 H           1 MOL       0.2015
     28 H2          2.0920   22.8505    4.7168 H           1 MOL       0.2015
     29 H3          3.1743   21.9571    5.6059 H           1 MOL       0.2015
     30 H4          4.2319   21.1839    3.6265 H           1 MOL       0.1099
     31 H5          3.6756   22.7088    1.5214 H           1 MOL       0.0363
     32 H6          2.1110   22.9111    2.2988 H           1 MOL       0.0363
     33 H7          3.1650   20.0895    1.9683 H           1 MOL       0.0434
     34 H8          2.6877   20.9433    0.5024 H           1 MOL       0.0434
     35 H9          3.1558   24.6055    3.8741 H           1 MOL       0.1886
     36 H10         5.8467   25.5099    3.6613 H           1 MOL       0.0819
     37 H11         4.1176   26.6523    2.4387 H           1 MOL       0.0478
     38 H12         4.9670   27.7371    3.5314 H           1 MOL       0.0478
     39 H13         7.0484   26.3792    5.2121 H           1 MOL       0.1875
     40 H14         6.1863   26.6938    7.9965 H           1 MOL       0.0726
     41 H15         8.2231   24.8953    6.7396 H           1 MOL       0.0308
     42 H16         7.3822   24.7586    8.2846 H           1 MOL       0.0308
     43 H17         9.6854   26.7380    8.0045 H           1 MOL       0.0297
     44 H18        10.0307   26.3144   10.4066 H           1 MOL       0.0232
     45 H19         8.7826   25.0398   10.4095 H           1 MOL       0.0232
     46 H20         8.3179   26.7414   10.1600 H           1 MOL       0.0232
     47 H21        10.5503   24.6299    7.0702 H           1 MOL       0.0232
     48 H22        10.0254   23.7350    8.5314 H           1 MOL       0.0232
     49 H23        11.3123   24.9817    8.6501 H           1 MOL       0.0232
@<TRIPOS>BOND
     1     3     2   1
     2     2     5   1
     3     2     1   1
     4     5     6   1
     5     6     7   1
     6     7     8  ar
     7     7     9  ar
     8     3     4   2
     9    12    11   1
    10    11    14   1
    11    11    10   1
    12    14    15   1
    13    15    16  ar
    14    15    17  ar
    15    12    13   2
    16    19    20   1
    17    19    22   1
    18    18    19   1
    19    22    23   1
    20    23    25   1
    21    23    24   1
    22    20    26  ar
    23    20    21  ar
    24    10     3  am
    25    12    18  am
    26     1    27   1
    27     1    28   1
    28     1    29   1
    29     2    30   1
    30     5    31   1
    31     5    32   1
    32     6    33   1
    33     6    34   1
    34    10    35   1
    35    11    36   1
    36    14    37   1
    37    14    38   1
    38    18    39   1
    39    19    40   1
    40    22    41   1
    41    22    42   1
    42    23    43   1
    43    24    44   1
    44    24    45   1
    45    24    46   1
    46    25    47   1
    47    25    48   1
    48    25    49   1
@<TRIPOS>SUBSTRUCTURE
     1  MOL      2

