@<TRIPOS>MOLECULE
1a30_ligand_063
    49    48
SMALL
GAST_HUCK
****
This file was generated by PARSER (from files_GN.cpp)

@<TRIPOS>ATOM
      1 N          13.8508   25.0993    4.5478 N.4         1 MOL       0.2380
      2 CA         13.8596   23.6463    4.2920 C.3         1 MOL       0.0665
      3 C          12.9605   22.9887    5.2181 C.2         1 MOL       0.2269
      4 O          11.9152   22.4922    4.7955 O.2         1 MOL      -0.3907
      5 CB         15.3277   23.1180    4.3361 C.3         1 MOL       0.0194
      6 CG         15.5458   21.5736    4.3685 C.3         1 MOL       0.0075
      7 CD         14.9473   20.8497    3.2345 C.2         1 MOL       0.0351
      8 OE1        13.6085   20.6825    3.1523 O.co2       1 MOL      -0.5690
      9 OE2        15.7239   20.0999    2.4126 O.co2       1 MOL      -0.5690
     10 N          13.2902   22.8772    6.4953 N.am        1 MOL      -0.2595
     11 CA         12.5886   22.1092    7.4901 C.3         1 MOL       0.1424
     12 C          11.2222   22.5953    7.6690 C.2         1 MOL       0.2051
     13 O          10.2836   21.8723    7.3316 O.2         1 MOL      -0.3943
     14 CB         13.4103   22.0131    8.8139 C.3         1 MOL       0.0406
     15 CG         13.9915   23.2837    9.3113 C.2         1 MOL       0.0393
     16 OD1        13.2295   24.1887    9.9667 O.co2       1 MOL      -0.5688
     17 OD2        15.3244   23.5202    9.1971 O.co2       1 MOL      -0.5688
     18 N          11.0146   23.8707    7.9243 N.am        1 MOL      -0.2694
     19 CA          9.7631   24.5726    7.9706 C.3         1 MOL       0.0946
     20 C           9.4416   24.9601    6.5770 C.2         1 MOL       0.0601
     21 O           9.5997   26.2319    6.1237 O.co2       1 MOL      -0.5666
     22 CB          9.9282   25.7441    8.9923 C.3         1 MOL      -0.0156
     23 CG          8.7201   26.6969    9.3286 C.3         1 MOL      -0.0431
     24 CD1         8.9788   28.1571    8.8488 C.3         1 MOL      -0.0625
     25 CD2         7.3153   26.2030    8.8803 C.3         1 MOL      -0.0625
     26 OXT         9.0788   24.0070    5.6883 O.co2       1 MOL      -0.5666
     27 H1         14.5062   25.5616    3.9145 H           1 MOL       0.2015
     28 H2         14.1347   25.2999    5.5110 H           1 MOL       0.2015
     29 H3         12.9104   25.4751    4.3874 H           1 MOL       0.2015
     30 H4         13.4932   23.5158    3.2720 H           1 MOL       0.1099
     31 H5         15.8158   23.5297    5.2259 H           1 MOL       0.0363
     32 H6         15.8588   23.5157    3.4657 H           1 MOL       0.0363
     33 H7         15.1436   21.1672    5.2969 H           1 MOL       0.0434
     34 H8         16.6234   21.3901    4.3778 H           1 MOL       0.0434
     35 H9         14.1159   23.3063    6.7790 H           1 MOL       0.1886
     36 H10        12.5474   21.0868    7.1076 H           1 MOL       0.0819
     37 H11        14.2415   21.3231    8.6398 H           1 MOL       0.0478
     38 H12        12.8055   21.5821    9.6139 H           1 MOL       0.0478
     39 H13        11.8051   24.4229    8.0558 H           1 MOL       0.1875
     40 H14         8.9733   23.9152    8.3430 H           1 MOL       0.0726
     41 H15        10.7883   26.3467    8.6648 H           1 MOL       0.0308
     42 H16        10.2377   25.2826    9.9418 H           1 MOL       0.0308
     43 H17         8.6667   26.7644   10.4229 H           1 MOL       0.0297
     44 H18         8.1766   28.8166    9.1886 H           1 MOL       0.0232
     45 H19         9.0347   28.2039    7.7581 H           1 MOL       0.0232
     46 H20         9.9199   28.5316    9.2659 H           1 MOL       0.0232
     47 H21         7.1151   25.2070    9.2799 H           1 MOL       0.0232
     48 H22         7.2397   26.1787    7.7893 H           1 MOL       0.0232
     49 H23         6.5434   26.8832    9.2605 H           1 MOL       0.0232
@<TRIPOS>BOND
     1     3     2   1
     2     2     5   1
     3     2     1   1
     4     5     6   1
     5     6     7   1
     6     7     8  ar
     7     7     9  ar
     8     3     4   2
     9    12    11   1
    10    11    14   1
    11    11    10   1
    12    14    15   1
    13    15    16  ar
    14    15    17  ar
    15    12    13   2
    16    19    20   1
    17    19    22   1
    18    18    19   1
    19    22    23   1
    20    23    25   1
    21    23    24   1
    22    20    26  ar
    23    20    21  ar
    24    10     3  am
    25    12    18  am
    26     1    27   1
    27     1    28   1
    28     1    29   1
    29     2    30   1
    30     5    31   1
    31     5    32   1
    32     6    33   1
    33     6    34   1
    34    10    35   1
    35    11    36   1
    36    14    37   1
    37    14    38   1
    38    18    39   1
    39    19    40   1
    40    22    41   1
    41    22    42   1
    42    23    43   1
    43    24    44   1
    44    24    45   1
    45    24    46   1
    46    25    47   1
    47    25    48   1
    48    25    49   1
@<TRIPOS>SUBSTRUCTURE
     1  MOL      2

