@<TRIPOS>MOLECULE
1a30_ligand_088
    49    48
SMALL
GAST_HUCK
****
This file was generated by PARSER (from files_GN.cpp)

@<TRIPOS>ATOM
      1 N          15.8402   19.4643    2.4457 N.4         1 MOL       0.2380
      2 CA         14.7515   19.5845    3.4332 C.3         1 MOL       0.0665
      3 C          14.8366   20.7998    4.2322 C.2         1 MOL       0.2269
      4 O          15.6561   21.6772    3.9476 O.2         1 MOL      -0.3907
      5 CB         14.7058   18.3125    4.3381 C.3         1 MOL       0.0194
      6 CG         14.4727   16.9496    3.6267 C.3         1 MOL       0.0075
      7 CD         13.3954   16.9852    2.6204 C.2         1 MOL       0.0351
      8 OE1        12.4523   16.0109    2.5787 O.co2       1 MOL      -0.5690
      9 OE2        13.5087   17.7870    1.5410 O.co2       1 MOL      -0.5690
     10 N          13.9560   20.9961    5.1948 N.am        1 MOL      -0.2595
     11 CA         13.7949   22.1323    6.0663 C.3         1 MOL       0.1424
     12 C          13.9145   21.6719    7.4468 C.2         1 MOL       0.2051
     13 O          13.1466   22.0415    8.3368 O.2         1 MOL      -0.3943
     14 CB         12.4727   22.8681    5.6828 C.3         1 MOL       0.0406
     15 CG         11.3041   21.9843    5.4981 C.2         1 MOL       0.0393
     16 OD1        10.8176   21.7370    4.2617 O.co2       1 MOL      -0.5688
     17 OD2        10.8368   21.2154    6.5008 O.co2       1 MOL      -0.5688
     18 N          14.9609   20.9227    7.7521 N.am        1 MOL      -0.2694
     19 CA         15.2942   20.3309    9.0214 C.3         1 MOL       0.0946
     20 C          15.2025   21.2647   10.1638 C.2         1 MOL       0.0601
     21 O          15.1195   22.5985    9.9858 O.co2       1 MOL      -0.5666
     22 CB         16.7025   19.6511    8.9300 C.3         1 MOL      -0.0156
     23 CG         17.9751   20.5694    8.8612 C.3         1 MOL      -0.0431
     24 CD1        19.2474   19.7080    8.6280 C.3         1 MOL      -0.0625
     25 CD2        17.9124   21.6971    7.7923 C.3         1 MOL      -0.0625
     26 OXT        15.1823   20.7816   11.4327 O.co2       1 MOL      -0.5666
     27 H1         15.7127   18.6188    1.8911 H           1 MOL       0.2015
     28 H2         16.7342   19.4212    2.9281 H           1 MOL       0.2015
     29 H3         15.8300   20.2679    1.8228 H           1 MOL       0.2015
     30 H4         13.8142   19.6423    2.8770 H           1 MOL       0.1099
     31 H5         13.9151   18.4212    5.0891 H           1 MOL       0.0363
     32 H6         15.6573   18.2399    4.8790 H           1 MOL       0.0363
     33 H7         14.2137   16.2118    4.3958 H           1 MOL       0.0434
     34 H8         15.3954   16.6087    3.1481 H           1 MOL       0.0434
     35 H9         13.3003   20.2919    5.3233 H           1 MOL       0.1886
     36 H10        14.6094   22.8503    5.9204 H           1 MOL       0.0819
     37 H11        12.6505   23.4003    4.7453 H           1 MOL       0.0478
     38 H12        12.2322   23.6200    6.4312 H           1 MOL       0.0478
     39 H13        15.5687   20.7166    7.0232 H           1 MOL       0.1875
     40 H14        14.5597   19.5340    9.1926 H           1 MOL       0.0726
     41 H15        16.6974   18.9903    8.0550 H           1 MOL       0.0308
     42 H16        16.8121   19.0042    9.8082 H           1 MOL       0.0308
     43 H17        18.0851   21.0560    9.8372 H           1 MOL       0.0297
     44 H18        20.1438   20.3277    8.6714 H           1 MOL       0.0232
     45 H19        19.2050   19.2227    7.6503 H           1 MOL       0.0232
     46 H20        19.3333   18.9363    9.3968 H           1 MOL       0.0232
     47 H21        17.1286   22.4189    8.0356 H           1 MOL       0.0232
     48 H22        17.7206   21.2785    6.8049 H           1 MOL       0.0232
     49 H23        18.8561   22.2490    7.7585 H           1 MOL       0.0232
@<TRIPOS>BOND
     1     3     2   1
     2     2     5   1
     3     2     1   1
     4     5     6   1
     5     6     7   1
     6     7     8  ar
     7     7     9  ar
     8     3     4   2
     9    12    11   1
    10    11    14   1
    11    11    10   1
    12    14    15   1
    13    15    16  ar
    14    15    17  ar
    15    12    13   2
    16    19    20   1
    17    19    22   1
    18    18    19   1
    19    22    23   1
    20    23    25   1
    21    23    24   1
    22    20    26  ar
    23    20    21  ar
    24    10     3  am
    25    12    18  am
    26     1    27   1
    27     1    28   1
    28     1    29   1
    29     2    30   1
    30     5    31   1
    31     5    32   1
    32     6    33   1
    33     6    34   1
    34    10    35   1
    35    11    36   1
    36    14    37   1
    37    14    38   1
    38    18    39   1
    39    19    40   1
    40    22    41   1
    41    22    42   1
    42    23    43   1
    43    24    44   1
    44    24    45   1
    45    24    46   1
    46    25    47   1
    47    25    48   1
    48    25    49   1
@<TRIPOS>SUBSTRUCTURE
     1  MOL      2

