@<TRIPOS>MOLECULE
1a30_ligand_036
    49    48
SMALL
GAST_HUCK
****
This file was generated by PARSER (from files_GN.cpp)

@<TRIPOS>ATOM
      1 N           7.4902   27.4167   10.0928 N.4         1 MOL       0.2380
      2 CA          8.4956   27.6623    9.0488 C.3         1 MOL       0.0665
      3 C           7.8142   27.8797    7.7775 C.2         1 MOL       0.2269
      4 O           7.9019   28.9903    7.2601 O.2         1 MOL      -0.3907
      5 CB          9.6147   26.5771    9.0476 C.3         1 MOL       0.0194
      6 CG          9.2060   25.1048    8.7288 C.3         1 MOL       0.0075
      7 CD          9.1889   24.7164    7.3032 C.2         1 MOL       0.0351
      8 OE1         9.6666   25.5170    6.3221 O.co2       1 MOL      -0.5690
      9 OE2         8.7915   23.4685    6.9661 O.co2       1 MOL      -0.5690
     10 N           7.0571   26.9372    7.2257 N.am        1 MOL      -0.2595
     11 CA          6.2861   26.9899    6.0087 C.3         1 MOL       0.1424
     12 C           7.1267   27.2153    4.8284 C.2         1 MOL       0.2051
     13 O           7.7341   28.2771    4.7536 O.2         1 MOL      -0.3943
     14 CB          5.1002   28.0016    6.1005 C.3         1 MOL       0.0406
     15 CG          4.1707   27.7758    7.2268 C.2         1 MOL       0.0393
     16 OD1         3.8852   26.5171    7.6344 O.co2       1 MOL      -0.5688
     17 OD2         3.2501   28.7278    7.5016 O.co2       1 MOL      -0.5688
     18 N           7.2257   26.3066    3.8601 N.am        1 MOL      -0.2694
     19 CA          7.9357   26.4599    2.6146 C.3         1 MOL       0.0946
     20 C           6.9677   26.5089    1.4954 C.2         1 MOL       0.0601
     21 O           5.7779   27.1404    1.6707 O.co2       1 MOL      -0.5666
     22 CB          9.0557   25.3838    2.4443 C.3         1 MOL      -0.0156
     23 CG          8.6430   23.9253    2.0381 C.3         1 MOL      -0.0431
     24 CD1         9.8313   23.1907    1.3543 C.3         1 MOL      -0.0625
     25 CD2         8.1245   23.0663    3.2256 C.3         1 MOL      -0.0625
     26 OXT         7.4227   26.4620    0.2217 O.co2       1 MOL      -0.5666
     27 H1          7.9554   27.3640   11.0018 H           1 MOL       0.2015
     28 H2          6.9965   26.5427    9.9068 H           1 MOL       0.2015
     29 H3          6.8225   28.1939   10.1033 H           1 MOL       0.2015
     30 H4          8.9859   28.5971    9.3487 H           1 MOL       0.1099
     31 H5         10.0532   26.5757   10.0513 H           1 MOL       0.0363
     32 H6         10.4146   26.8915    8.3732 H           1 MOL       0.0363
     33 H7          8.2202   24.9000    9.1568 H           1 MOL       0.0434
     34 H8          9.9135   24.4325    9.2218 H           1 MOL       0.0434
     35 H9          7.0041   26.0955    7.7138 H           1 MOL       0.1886
     36 H10         5.8302   26.0002    5.9078 H           1 MOL       0.0819
     37 H11         4.5120   27.9606    5.1786 H           1 MOL       0.0478
     38 H12         5.4936   29.0186    6.1949 H           1 MOL       0.0478
     39 H13         6.7182   25.4909    3.9698 H           1 MOL       0.1875
     40 H14         8.4523   27.4260    2.5849 H           1 MOL       0.0726
     41 H15         9.6516   25.3403    3.3639 H           1 MOL       0.0308
     42 H16         9.7281   25.7692    1.6723 H           1 MOL       0.0308
     43 H17         7.8423   23.9782    1.2961 H           1 MOL       0.0297
     44 H18         9.5254   22.1921    1.0171 H           1 MOL       0.0232
     45 H19        10.6693   23.0877    2.0467 H           1 MOL       0.0232
     46 H20        10.1704   23.7456    0.4746 H           1 MOL       0.0232
     47 H21         7.2497   23.5224    3.6892 H           1 MOL       0.0232
     48 H22         8.9028   22.9478    3.9857 H           1 MOL       0.0232
     49 H23         7.8316   22.0737    2.8731 H           1 MOL       0.0232
@<TRIPOS>BOND
     1     3     2   1
     2     2     5   1
     3     2     1   1
     4     5     6   1
     5     6     7   1
     6     7     8  ar
     7     7     9  ar
     8     3     4   2
     9    12    11   1
    10    11    14   1
    11    11    10   1
    12    14    15   1
    13    15    16  ar
    14    15    17  ar
    15    12    13   2
    16    19    20   1
    17    19    22   1
    18    18    19   1
    19    22    23   1
    20    23    25   1
    21    23    24   1
    22    20    26  ar
    23    20    21  ar
    24    10     3  am
    25    12    18  am
    26     1    27   1
    27     1    28   1
    28     1    29   1
    29     2    30   1
    30     5    31   1
    31     5    32   1
    32     6    33   1
    33     6    34   1
    34    10    35   1
    35    11    36   1
    36    14    37   1
    37    14    38   1
    38    18    39   1
    39    19    40   1
    40    22    41   1
    41    22    42   1
    42    23    43   1
    43    24    44   1
    44    24    45   1
    45    24    46   1
    46    25    47   1
    47    25    48   1
    48    25    49   1
@<TRIPOS>SUBSTRUCTURE
     1  MOL      2

