@<TRIPOS>MOLECULE
1a30_ligand_016
    49    48
SMALL
GAST_HUCK
****
This file was generated by PARSER (from files_GN.cpp)

@<TRIPOS>ATOM
      1 N          14.6644   24.5331    4.6391 N.4         1 MOL       0.2380
      2 CA         13.2654   24.1284    4.4015 C.3         1 MOL       0.0665
      3 C          12.4713   24.2776    5.6096 C.2         1 MOL       0.2269
      4 O          12.0188   23.2910    6.1958 O.2         1 MOL      -0.3907
      5 CB         13.2470   22.7366    3.6803 C.3         1 MOL       0.0194
      6 CG         13.2035   21.4528    4.5675 C.3         1 MOL       0.0075
      7 CD         11.8445   21.0186    4.9384 C.2         1 MOL       0.0351
      8 OE1        11.5488   20.5542    6.1761 O.co2       1 MOL      -0.5690
      9 OE2        10.8348   21.1540    4.0481 O.co2       1 MOL      -0.5690
     10 N          12.2888   25.4916    6.1136 N.am        1 MOL      -0.2595
     11 CA         11.6417   25.8445    7.3459 C.3         1 MOL       0.1424
     12 C          11.8049   24.7751    8.3300 C.2         1 MOL       0.2051
     13 O          10.8288   24.3060    8.9027 O.2         1 MOL      -0.3943
     14 CB         10.1860   26.3325    7.0398 C.3         1 MOL       0.0406
     15 CG          9.7040   27.3916    7.9529 C.2         1 MOL       0.0393
     16 OD1         9.8111   27.2702    9.2914 O.co2       1 MOL      -0.5688
     17 OD2         9.0728   28.4882    7.4595 O.co2       1 MOL      -0.5688
     18 N          13.0164   24.2593    8.5297 N.am        1 MOL      -0.2694
     19 CA         13.3509   23.1214    9.3442 C.3         1 MOL       0.0946
     20 C          14.1296   23.6354   10.4840 C.2         1 MOL       0.0601
     21 O          15.4834   23.6771   10.4233 O.co2       1 MOL      -0.5666
     22 CB         14.0702   22.0460    8.4708 C.3         1 MOL      -0.0156
     23 CG         14.4341   20.6937    9.1812 C.3         1 MOL      -0.0431
     24 CD1        15.1377   19.7312    8.1726 C.3         1 MOL      -0.0625
     25 CD2        15.3221   20.8568   10.4473 C.3         1 MOL      -0.0625
     26 OXT        13.5195   24.5052   11.3186 O.co2       1 MOL      -0.5666
     27 H1         15.1159   24.6237    3.7305 H           1 MOL       0.2015
     28 H2         15.1575   23.8428    5.2089 H           1 MOL       0.2015
     29 H3         14.7063   25.4510    5.0969 H           1 MOL       0.2015
     30 H4         12.8578   24.8477    3.6760 H           1 MOL       0.1099
     31 H5         14.1641   22.6702    3.0817 H           1 MOL       0.0363
     32 H6         12.4200   22.7279    2.9544 H           1 MOL       0.0363
     33 H7         13.8088   21.5952    5.4686 H           1 MOL       0.0434
     34 H8         13.6482   20.6222    4.0048 H           1 MOL       0.0434
     35 H9         12.6744   26.2251    5.6044 H           1 MOL       0.1886
     36 H10        12.1968   26.7092    7.7209 H           1 MOL       0.0819
     37 H11         9.4968   25.4869    7.0686 H           1 MOL       0.0478
     38 H12        10.1556   26.7370    6.0268 H           1 MOL       0.0478
     39 H13        13.7556   24.6942    8.0684 H           1 MOL       0.1875
     40 H14        12.4533   22.6468    9.7574 H           1 MOL       0.0726
     41 H15        14.9665   22.4736    8.0135 H           1 MOL       0.0308
     42 H16        13.3964   21.7995    7.6443 H           1 MOL       0.0308
     43 H17        13.4993   20.2128    9.4909 H           1 MOL       0.0297
     44 H18        15.3563   18.7766    8.6573 H           1 MOL       0.0232
     45 H19        16.0795   20.1706    7.8224 H           1 MOL       0.0232
     46 H20        14.4988   19.5406    7.3103 H           1 MOL       0.0232
     47 H21        14.7759   21.3795   11.2348 H           1 MOL       0.0232
     48 H22        16.2270   21.4186   10.1956 H           1 MOL       0.0232
     49 H23        15.6110   19.8732   10.8359 H           1 MOL       0.0232
@<TRIPOS>BOND
     1     3     2   1
     2     2     5   1
     3     2     1   1
     4     5     6   1
     5     6     7   1
     6     7     8  ar
     7     7     9  ar
     8     3     4   2
     9    12    11   1
    10    11    14   1
    11    11    10   1
    12    14    15   1
    13    15    16  ar
    14    15    17  ar
    15    12    13   2
    16    19    20   1
    17    19    22   1
    18    18    19   1
    19    22    23   1
    20    23    25   1
    21    23    24   1
    22    20    26  ar
    23    20    21  ar
    24    10     3  am
    25    12    18  am
    26     1    27   1
    27     1    28   1
    28     1    29   1
    29     2    30   1
    30     5    31   1
    31     5    32   1
    32     6    33   1
    33     6    34   1
    34    10    35   1
    35    11    36   1
    36    14    37   1
    37    14    38   1
    38    18    39   1
    39    19    40   1
    40    22    41   1
    41    22    42   1
    42    23    43   1
    43    24    44   1
    44    24    45   1
    45    24    46   1
    46    25    47   1
    47    25    48   1
    48    25    49   1
@<TRIPOS>SUBSTRUCTURE
     1  MOL      2

