@<TRIPOS>MOLECULE
1a30_ligand_062
    49    48
SMALL
GAST_HUCK
****
This file was generated by PARSER (from files_GN.cpp)

@<TRIPOS>ATOM
      1 N           7.6334   25.1253    4.2807 N.4         1 MOL       0.2380
      2 CA          6.6438   25.9081    3.5144 C.3         1 MOL       0.0665
      3 C           5.9069   26.8070    4.3986 C.2         1 MOL       0.2269
      4 O           5.5648   27.8897    3.9498 O.2         1 MOL      -0.3907
      5 CB          5.6675   25.0384    2.6605 C.3         1 MOL       0.0194
      6 CG          6.2687   23.7696    1.9861 C.3         1 MOL       0.0075
      7 CD          6.5830   22.6884    2.9398 C.2         1 MOL       0.0351
      8 OE1         7.7624   22.0259    2.8728 O.co2       1 MOL      -0.5690
      9 OE2         5.6384   22.2473    3.8040 O.co2       1 MOL      -0.5690
     10 N           5.5160   26.3871    5.5996 N.am        1 MOL      -0.2595
     11 CA          4.8003   27.0601    6.6522 C.3         1 MOL       0.1424
     12 C           3.4898   27.5818    6.2484 C.2         1 MOL       0.2051
     13 O           2.4773   26.9988    6.6285 O.2         1 MOL      -0.3943
     14 CB          5.6233   28.0801    7.5311 C.3         1 MOL       0.0406
     15 CG          7.0202   28.3841    7.1486 C.2         1 MOL       0.0393
     16 OD1         7.2915   28.6289    5.8492 O.co2       1 MOL      -0.5688
     17 OD2         7.8161   28.9974    8.0623 O.co2       1 MOL      -0.5688
     18 N           3.4039   28.7150    5.5667 N.am        1 MOL      -0.2694
     19 CA          2.2216   29.4489    5.2381 C.3         1 MOL       0.0946
     20 C           1.4553   28.7101    4.2024 C.2         1 MOL       0.0601
     21 O           0.4933   27.8327    4.5603 O.co2       1 MOL      -0.5666
     22 CB          2.6278   30.8944    4.8010 C.3         1 MOL      -0.0156
     23 CG          3.4976   31.7097    5.8155 C.3         1 MOL      -0.0431
     24 CD1         4.1384   32.9483    5.1281 C.3         1 MOL      -0.0625
     25 CD2         2.7091   32.1434    7.0843 C.3         1 MOL      -0.0625
     26 OXT         1.6549   28.8859    2.8746 O.co2       1 MOL      -0.5666
     27 H1          8.2491   24.6300    3.6337 H           1 MOL       0.2015
     28 H2          7.1552   24.4480    4.8814 H           1 MOL       0.2015
     29 H3          8.1929   25.7561    4.8544 H           1 MOL       0.2015
     30 H4          7.2366   26.5136    2.8231 H           1 MOL       0.1099
     31 H5          5.2811   25.6743    1.8533 H           1 MOL       0.0363
     32 H6          4.8078   24.7292    3.2623 H           1 MOL       0.0363
     33 H7          7.1650   24.0438    1.4176 H           1 MOL       0.0434
     34 H8          5.5366   23.3740    1.2774 H           1 MOL       0.0434
     35 H9          5.7581   25.4730    5.8144 H           1 MOL       0.1886
     36 H10         4.6026   26.2311    7.3397 H           1 MOL       0.0819
     37 H11         5.6469   27.7081    8.5703 H           1 MOL       0.0478
     38 H12         5.1070   29.0444    7.5886 H           1 MOL       0.0478
     39 H13         4.2433   29.1401    5.3351 H           1 MOL       0.1875
     40 H14         1.5771   29.5380    6.1176 H           1 MOL       0.0726
     41 H15         1.7210   31.4642    4.5780 H           1 MOL       0.0308
     42 H16         3.1909   30.8077    3.8668 H           1 MOL       0.0308
     43 H17         4.3316   31.0847    6.1490 H           1 MOL       0.0297
     44 H18         4.7933   33.4755    5.8248 H           1 MOL       0.0232
     45 H19         3.3687   33.6379    4.7770 H           1 MOL       0.0232
     46 H20         4.7444   32.6339    4.2740 H           1 MOL       0.0232
     47 H21         2.3391   31.2683    7.6261 H           1 MOL       0.0232
     48 H22         1.8593   32.7718    6.8155 H           1 MOL       0.0232
     49 H23         3.3563   32.6969    7.7649 H           1 MOL       0.0232
@<TRIPOS>BOND
     1     3     2   1
     2     2     5   1
     3     2     1   1
     4     5     6   1
     5     6     7   1
     6     7     8  ar
     7     7     9  ar
     8     3     4   2
     9    12    11   1
    10    11    14   1
    11    11    10   1
    12    14    15   1
    13    15    16  ar
    14    15    17  ar
    15    12    13   2
    16    19    20   1
    17    19    22   1
    18    18    19   1
    19    22    23   1
    20    23    25   1
    21    23    24   1
    22    20    26  ar
    23    20    21  ar
    24    10     3  am
    25    12    18  am
    26     1    27   1
    27     1    28   1
    28     1    29   1
    29     2    30   1
    30     5    31   1
    31     5    32   1
    32     6    33   1
    33     6    34   1
    34    10    35   1
    35    11    36   1
    36    14    37   1
    37    14    38   1
    38    18    39   1
    39    19    40   1
    40    22    41   1
    41    22    42   1
    42    23    43   1
    43    24    44   1
    44    24    45   1
    45    24    46   1
    46    25    47   1
    47    25    48   1
    48    25    49   1
@<TRIPOS>SUBSTRUCTURE
     1  MOL      2

