@<TRIPOS>MOLECULE
1a30_ligand_058
    49    48
SMALL
GAST_HUCK
****
This file was generated by PARSER (from files_GN.cpp)

@<TRIPOS>ATOM
      1 N          14.1840   23.9362    8.2656 N.4         1 MOL       0.2380
      2 CA         13.7195   23.0273    7.2037 C.3         1 MOL       0.0665
      3 C          14.8839   22.5339    6.4840 C.2         1 MOL       0.2269
      4 O          15.3480   23.1949    5.5596 O.2         1 MOL      -0.3907
      5 CB         12.6493   23.7364    6.3044 C.3         1 MOL       0.0194
      6 CG         11.1685   23.4707    6.7134 C.3         1 MOL       0.0075
      7 CD         10.5982   22.2732    6.0648 C.2         1 MOL       0.0351
      8 OE1        10.0886   22.3881    4.8182 O.co2       1 MOL      -0.5690
      9 OE2        11.0130   21.0419    6.4293 O.co2       1 MOL      -0.5690
     10 N          15.4686   21.4065    6.8777 N.am        1 MOL      -0.2595
     11 CA         16.5796   20.7136    6.2742 C.3         1 MOL       0.1424
     12 C          16.1094   19.4548    5.6913 C.2         1 MOL       0.2051
     13 O          14.9390   19.3435    5.3150 O.2         1 MOL      -0.3943
     14 CB         17.6860   20.5907    7.3731 C.3         1 MOL       0.0406
     15 CG         19.0651   20.3168    6.9115 C.2         1 MOL       0.0393
     16 OD1        20.0788   20.3626    7.7987 O.co2       1 MOL      -0.5688
     17 OD2        19.3679   20.1159    5.6026 O.co2       1 MOL      -0.5688
     18 N          16.9492   18.4487    5.4622 N.am        1 MOL      -0.2694
     19 CA         16.6254   17.1443    4.9568 C.3         1 MOL       0.0946
     20 C          17.8675   16.3381    4.8671 C.2         1 MOL       0.0601
     21 O          18.9688   16.8219    4.2445 O.co2       1 MOL      -0.5666
     22 CB         15.8354   17.1602    3.6164 C.3         1 MOL      -0.0156
     23 CG         16.5787   17.7574    2.3655 C.3         1 MOL      -0.0431
     24 CD1        16.9780   16.6586    1.3452 C.3         1 MOL      -0.0625
     25 CD2        15.7456   18.8686    1.6673 C.3         1 MOL      -0.0625
     26 OXT        17.9806   15.1659    5.5272 O.co2       1 MOL      -0.5666
     27 H1         13.3966   24.2024    8.8595 H           1 MOL       0.2015
     28 H2         14.5906   24.7773    7.8469 H           1 MOL       0.2015
     29 H3         14.8927   23.4670    8.8370 H           1 MOL       0.2015
     30 H4         13.2383   22.1818    7.7118 H           1 MOL       0.1099
     31 H5         12.7783   23.4489    5.2550 H           1 MOL       0.0363
     32 H6         12.8249   24.8165    6.3412 H           1 MOL       0.0363
     33 H7         10.5589   24.3307    6.4270 H           1 MOL       0.0434
     34 H8         11.0785   23.3638    7.7983 H           1 MOL       0.0434
     35 H9         15.0889   20.9761    7.6625 H           1 MOL       0.1886
     36 H10        16.9910   21.3044    5.4427 H           1 MOL       0.0819
     37 H11        17.3974   19.8081    8.0820 H           1 MOL       0.0478
     38 H12        17.7438   21.5308    7.9298 H           1 MOL       0.0478
     39 H13        17.8731   18.5861    5.7170 H           1 MOL       0.1875
     40 H14        15.9845   16.6557    5.6966 H           1 MOL       0.0726
     41 H15        14.9057   17.7143    3.7931 H           1 MOL       0.0308
     42 H16        15.5179   16.1352    3.4064 H           1 MOL       0.0308
     43 H17        17.5074   18.2387    2.6909 H           1 MOL       0.0297
     44 H18        17.5121   17.1018    0.5005 H           1 MOL       0.0232
     45 H19        16.0927   16.1413    0.9661 H           1 MOL       0.0232
     46 H20        17.6290   15.9205    1.8184 H           1 MOL       0.0232
     47 H21        15.5168   19.6700    2.3752 H           1 MOL       0.0232
     48 H22        14.8057   18.4572    1.2851 H           1 MOL       0.0232
     49 H23        16.3038   19.3030    0.8327 H           1 MOL       0.0232
@<TRIPOS>BOND
     1     3     2   1
     2     2     5   1
     3     2     1   1
     4     5     6   1
     5     6     7   1
     6     7     8  ar
     7     7     9  ar
     8     3     4   2
     9    12    11   1
    10    11    14   1
    11    11    10   1
    12    14    15   1
    13    15    16  ar
    14    15    17  ar
    15    12    13   2
    16    19    20   1
    17    19    22   1
    18    18    19   1
    19    22    23   1
    20    23    25   1
    21    23    24   1
    22    20    26  ar
    23    20    21  ar
    24    10     3  am
    25    12    18  am
    26     1    27   1
    27     1    28   1
    28     1    29   1
    29     2    30   1
    30     5    31   1
    31     5    32   1
    32     6    33   1
    33     6    34   1
    34    10    35   1
    35    11    36   1
    36    14    37   1
    37    14    38   1
    38    18    39   1
    39    19    40   1
    40    22    41   1
    41    22    42   1
    42    23    43   1
    43    24    44   1
    44    24    45   1
    45    24    46   1
    46    25    47   1
    47    25    48   1
    48    25    49   1
@<TRIPOS>SUBSTRUCTURE
     1  MOL      2

