@<TRIPOS>MOLECULE
1a30_ligand_011
    49    48
SMALL
GAST_HUCK
****
This file was generated by PARSER (from files_GN.cpp)

@<TRIPOS>ATOM
      1 N          14.7787   24.3905    4.9304 N.4         1 MOL       0.2380
      2 CA         14.0080   23.1332    5.0447 C.3         1 MOL       0.0665
      3 C          12.6203   23.3456    4.6417 C.2         1 MOL       0.2269
      4 O          12.2517   22.8461    3.5867 O.2         1 MOL      -0.3907
      5 CB         14.1249   22.5198    6.4786 C.3         1 MOL       0.0194
      6 CG         13.7337   21.0089    6.6038 C.3         1 MOL       0.0075
      7 CD         12.6252   20.5612    5.7468 C.2         1 MOL       0.0351
      8 OE1        11.3405   20.6482    6.1784 O.co2       1 MOL      -0.5690
      9 OE2        12.8491   20.3461    4.4307 O.co2       1 MOL      -0.5690
     10 N          11.7798   24.0220    5.4196 N.am        1 MOL      -0.2595
     11 CA         10.3605   24.1993    5.2344 C.3         1 MOL       0.1424
     12 C           9.9940   25.5998    5.0698 C.2         1 MOL       0.2051
     13 O          10.7248   26.4851    5.5169 O.2         1 MOL      -0.3943
     14 CB          9.5843   23.5239    6.4125 C.3         1 MOL       0.0406
     15 CG          9.9589   24.0067    7.7625 C.2         1 MOL       0.0393
     16 OD1         9.0097   24.4528    8.6175 O.co2       1 MOL      -0.5688
     17 OD2        11.2197   23.8498    8.2167 O.co2       1 MOL      -0.5688
     18 N           8.8378   25.8986    4.4813 N.am        1 MOL      -0.2694
     19 CA          8.3076   27.1954    4.1982 C.3         1 MOL       0.0946
     20 C           7.2598   27.5082    5.2019 C.2         1 MOL       0.0601
     21 O           6.0926   26.8325    5.2695 O.co2       1 MOL      -0.5666
     22 CB          7.8277   27.3747    2.7180 C.3         1 MOL      -0.0156
     23 CG          7.0557   26.2422    1.9569 C.3         1 MOL      -0.0431
     24 CD1         7.9637   25.0851    1.4399 C.3         1 MOL      -0.0625
     25 CD2         5.8143   25.6848    2.7136 C.3         1 MOL      -0.0625
     26 OXT         7.4876   28.4515    6.1462 O.co2       1 MOL      -0.5666
     27 H1         15.7493   24.2224    5.2297 H           1 MOL       0.2015
     28 H2         14.3789   25.1278    5.5245 H           1 MOL       0.2015
     29 H3         14.7976   24.6892    3.9430 H           1 MOL       0.2015
     30 H4         14.5038   22.4383    4.3546 H           1 MOL       0.1099
     31 H5         13.5327   23.0949    7.1991 H           1 MOL       0.0363
     32 H6         15.1683   22.5913    6.8109 H           1 MOL       0.0363
     33 H7         13.4638   20.8049    7.6545 H           1 MOL       0.0434
     34 H8         14.6157   20.3863    6.3858 H           1 MOL       0.0434
     35 H9         12.1611   24.4054    6.2268 H           1 MOL       0.1886
     36 H10        10.0510   23.6827    4.3165 H           1 MOL       0.0819
     37 H11         9.7638   22.4479    6.3799 H           1 MOL       0.0478
     38 H12         8.5125   23.6792    6.2573 H           1 MOL       0.0478
     39 H13         8.2850   25.1450    4.2024 H           1 MOL       0.1875
     40 H14         9.0867   27.9473    4.3355 H           1 MOL       0.0726
     41 H15         8.7103   27.5974    2.1093 H           1 MOL       0.0308
     42 H16         7.2070   28.2793    2.6674 H           1 MOL       0.0308
     43 H17         6.6536   26.7198    1.0519 H           1 MOL       0.0297
     44 H18         7.3930   24.4473    0.7545 H           1 MOL       0.0232
     45 H19         8.3252   24.4599    2.2599 H           1 MOL       0.0232
     46 H20         8.8232   25.4911    0.8969 H           1 MOL       0.0232
     47 H21         5.1765   26.5101    3.0499 H           1 MOL       0.0232
     48 H22         6.1235   25.0905    3.5760 H           1 MOL       0.0232
     49 H23         5.2247   25.0447    2.0443 H           1 MOL       0.0232
@<TRIPOS>BOND
     1     3     2   1
     2     2     5   1
     3     2     1   1
     4     5     6   1
     5     6     7   1
     6     7     8  ar
     7     7     9  ar
     8     3     4   2
     9    12    11   1
    10    11    14   1
    11    11    10   1
    12    14    15   1
    13    15    16  ar
    14    15    17  ar
    15    12    13   2
    16    19    20   1
    17    19    22   1
    18    18    19   1
    19    22    23   1
    20    23    25   1
    21    23    24   1
    22    20    26  ar
    23    20    21  ar
    24    10     3  am
    25    12    18  am
    26     1    27   1
    27     1    28   1
    28     1    29   1
    29     2    30   1
    30     5    31   1
    31     5    32   1
    32     6    33   1
    33     6    34   1
    34    10    35   1
    35    11    36   1
    36    14    37   1
    37    14    38   1
    38    18    39   1
    39    19    40   1
    40    22    41   1
    41    22    42   1
    42    23    43   1
    43    24    44   1
    44    24    45   1
    45    24    46   1
    46    25    47   1
    47    25    48   1
    48    25    49   1
@<TRIPOS>SUBSTRUCTURE
     1  MOL      2

