@<TRIPOS>MOLECULE
1a30_ligand_074
    49    48
SMALL
GAST_HUCK
****
This file was generated by PARSER (from files_GN.cpp)

@<TRIPOS>ATOM
      1 N          14.9132   23.6839    6.0982 N.4         1 MOL       0.2380
      2 CA         14.0421   23.6145    4.9026 C.3         1 MOL       0.0665
      3 C          12.6432   23.9678    5.1628 C.2         1 MOL       0.2269
      4 O          11.8020   23.5764    4.3639 O.2         1 MOL      -0.3907
      5 CB         14.2322   22.2195    4.2214 C.3         1 MOL       0.0194
      6 CG         13.6734   20.9728    4.9735 C.3         1 MOL       0.0075
      7 CD         12.2039   20.9021    5.0518 C.2         1 MOL       0.0351
      8 OE1        11.5758   20.5739    6.2041 O.co2       1 MOL      -0.5690
      9 OE2        11.4475   21.0580    3.9470 O.co2       1 MOL      -0.5690
     10 N          12.3073   24.7348    6.2048 N.am        1 MOL      -0.2595
     11 CA         11.0267   25.1065    6.7521 C.3         1 MOL       0.1424
     12 C           9.8296   24.7813    5.9803 C.2         1 MOL       0.2051
     13 O           9.1765   23.8030    6.3225 O.2         1 MOL      -0.3943
     14 CB         11.0703   26.6151    7.1265 C.3         1 MOL       0.0406
     15 CG          9.8707   27.1240    7.8326 C.2         1 MOL       0.0393
     16 OD1         9.2960   26.3899    8.8129 O.co2       1 MOL      -0.5688
     17 OD2         9.4469   28.4000    7.6571 O.co2       1 MOL      -0.5688
     18 N           9.4434   25.5524    4.9647 N.am        1 MOL      -0.2694
     19 CA          8.2998   25.3899    4.1062 C.3         1 MOL       0.0946
     20 C           7.0639   25.9098    4.7374 C.2         1 MOL       0.0601
     21 O           7.0329   26.2374    6.0522 O.co2       1 MOL      -0.5666
     22 CB          8.1705   23.9273    3.5687 C.3         1 MOL      -0.0156
     23 CG          6.9815   23.5352    2.6317 C.3         1 MOL      -0.0431
     24 CD1         5.6376   23.3007    3.3768 C.3         1 MOL      -0.0625
     25 CD2         6.7934   24.5031    1.4381 C.3         1 MOL      -0.0625
     26 OXT         6.1064   26.4766    3.9707 O.co2       1 MOL      -0.5666
     27 H1         15.8663   23.4073    5.8474 H           1 MOL       0.2015
     28 H2         14.5607   23.0661    6.8311 H           1 MOL       0.2015
     29 H3         14.9333   24.6463    6.4540 H           1 MOL       0.2015
     30 H4         14.4324   24.3671    4.2083 H           1 MOL       0.1099
     31 H5         15.3090   22.0686    4.0766 H           1 MOL       0.0363
     32 H6         13.7915   22.2435    3.2220 H           1 MOL       0.0363
     33 H7         14.0868   20.9431    5.9880 H           1 MOL       0.0434
     34 H8         14.0211   20.0728    4.4518 H           1 MOL       0.0434
     35 H9         13.0592   25.1088    6.6831 H           1 MOL       0.1886
     36 H10        10.9849   24.5535    7.6966 H           1 MOL       0.0819
     37 H11        11.2283   27.1963    6.2169 H           1 MOL       0.0478
     38 H12        11.9382   26.7901    7.7727 H           1 MOL       0.0478
     39 H13        10.0183   26.3064    4.7531 H           1 MOL       0.1875
     40 H14         8.5246   26.0275    3.2473 H           1 MOL       0.0726
     41 H15         8.1529   23.2469    4.4239 H           1 MOL       0.0308
     42 H16         9.0883   23.7027    3.0208 H           1 MOL       0.0308
     43 H17         7.2566   22.5667    2.2023 H           1 MOL       0.0297
     44 H18         4.9074   22.8605    2.6970 H           1 MOL       0.0232
     45 H19         5.2178   24.2282    3.7576 H           1 MOL       0.0232
     46 H20         5.7798   22.6133    4.2153 H           1 MOL       0.0232
     47 H21         7.7516   24.6736    0.9359 H           1 MOL       0.0232
     48 H22         6.4012   25.4679    1.7776 H           1 MOL       0.0232
     49 H23         6.0983   24.0832    0.7132 H           1 MOL       0.0232
@<TRIPOS>BOND
     1     3     2   1
     2     2     5   1
     3     2     1   1
     4     5     6   1
     5     6     7   1
     6     7     8  ar
     7     7     9  ar
     8     3     4   2
     9    12    11   1
    10    11    14   1
    11    11    10   1
    12    14    15   1
    13    15    16  ar
    14    15    17  ar
    15    12    13   2
    16    19    20   1
    17    19    22   1
    18    18    19   1
    19    22    23   1
    20    23    25   1
    21    23    24   1
    22    20    26  ar
    23    20    21  ar
    24    10     3  am
    25    12    18  am
    26     1    27   1
    27     1    28   1
    28     1    29   1
    29     2    30   1
    30     5    31   1
    31     5    32   1
    32     6    33   1
    33     6    34   1
    34    10    35   1
    35    11    36   1
    36    14    37   1
    37    14    38   1
    38    18    39   1
    39    19    40   1
    40    22    41   1
    41    22    42   1
    42    23    43   1
    43    24    44   1
    44    24    45   1
    45    24    46   1
    46    25    47   1
    47    25    48   1
    48    25    49   1
@<TRIPOS>SUBSTRUCTURE
     1  MOL      2

