@<TRIPOS>MOLECULE
1a30_ligand_024
    49    48
SMALL
GAST_HUCK
****
This file was generated by PARSER (from files_GN.cpp)

@<TRIPOS>ATOM
      1 N          13.8876   24.8630    4.7124 N.4         1 MOL       0.2380
      2 CA         13.5055   23.4499    4.9125 C.3         1 MOL       0.0665
      3 C          14.6600   22.5546    4.9341 C.2         1 MOL       0.2269
      4 O          15.7728   22.9631    4.6141 O.2         1 MOL      -0.3907
      5 CB         12.4358   23.0502    3.8452 C.3         1 MOL       0.0194
      6 CG         11.0378   23.6859    4.0763 C.3         1 MOL       0.0075
      7 CD         10.4014   23.2396    5.3327 C.2         1 MOL       0.0351
      8 OE1         9.9746   24.1353    6.2510 O.co2       1 MOL      -0.5690
      9 OE2        10.2716   21.9213    5.5964 O.co2       1 MOL      -0.5690
     10 N          14.4972   21.3001    5.3346 N.am        1 MOL      -0.2595
     11 CA         15.4708   20.2506    5.4577 C.3         1 MOL       0.1424
     12 C          16.0091   20.2296    6.8144 C.2         1 MOL       0.2051
     13 O          17.2234   20.1315    6.9971 O.2         1 MOL      -0.3943
     14 CB         16.4957   20.2887    4.2756 C.3         1 MOL       0.0406
     15 CG         16.9653   18.9517    3.8462 C.2         1 MOL       0.0393
     16 OD1        18.1957   18.7976    3.2985 O.co2       1 MOL      -0.5688
     17 OD2        16.0501   17.9815    3.6114 O.co2       1 MOL      -0.5688
     18 N          15.1682   20.2740    7.8459 N.am        1 MOL      -0.2694
     19 CA         15.5024   20.2504    9.2456 C.3         1 MOL       0.0946
     20 C          15.4752   18.8329    9.6839 C.2         1 MOL       0.0601
     21 O          14.6817   18.3815   10.6828 O.co2       1 MOL      -0.5666
     22 CB         14.5763   21.1686   10.1143 C.3         1 MOL      -0.0156
     23 CG         14.2747   22.6307    9.6373 C.3         1 MOL      -0.0431
     24 CD1        15.4401   23.3053    8.8655 C.3         1 MOL      -0.0625
     25 CD2        12.9395   22.7289    8.8442 C.3         1 MOL      -0.0625
     26 OXT        16.2920   17.9291    9.0927 O.co2       1 MOL      -0.5666
     27 H1         13.0526   25.4527    4.7141 H           1 MOL       0.2015
     28 H2         14.3687   24.9633    3.8150 H           1 MOL       0.2015
     29 H3         14.5086   25.1660    5.4637 H           1 MOL       0.2015
     30 H4         13.0564   23.3944    5.9070 H           1 MOL       0.1099
     31 H5         12.2962   21.9669    3.8148 H           1 MOL       0.0363
     32 H6         12.7965   23.3415    2.8569 H           1 MOL       0.0363
     33 H7         10.3817   23.4011    3.2498 H           1 MOL       0.0434
     34 H8         11.1280   24.7722    4.0730 H           1 MOL       0.0434
     35 H9         13.5938   21.0425    5.5599 H           1 MOL       0.1886
     36 H10        14.9023   19.3244    5.3388 H           1 MOL       0.0819
     37 H11        17.3697   20.8897    4.5499 H           1 MOL       0.0478
     38 H12        16.0373   20.7680    3.4044 H           1 MOL       0.0478
     39 H13        14.2205   20.2698    7.6303 H           1 MOL       0.1875
     40 H14        16.5244   20.5985    9.4021 H           1 MOL       0.0726
     41 H15        15.0493   21.2459   11.1009 H           1 MOL       0.0308
     42 H16        13.6189   20.6626   10.2768 H           1 MOL       0.0308
     43 H17        14.1226   23.2337   10.5398 H           1 MOL       0.0297
     44 H18        15.2390   24.3752    8.7291 H           1 MOL       0.0232
     45 H19        15.5729   22.8501    7.8813 H           1 MOL       0.0232
     46 H20        16.3750   23.2122    9.4256 H           1 MOL       0.0232
     47 H21        12.1058   22.4309    9.4816 H           1 MOL       0.0232
     48 H22        12.9613   22.0746    7.9714 H           1 MOL       0.0232
     49 H23        12.7624   23.7557    8.5162 H           1 MOL       0.0232
@<TRIPOS>BOND
     1     3     2   1
     2     2     5   1
     3     2     1   1
     4     5     6   1
     5     6     7   1
     6     7     8  ar
     7     7     9  ar
     8     3     4   2
     9    12    11   1
    10    11    14   1
    11    11    10   1
    12    14    15   1
    13    15    16  ar
    14    15    17  ar
    15    12    13   2
    16    19    20   1
    17    19    22   1
    18    18    19   1
    19    22    23   1
    20    23    25   1
    21    23    24   1
    22    20    26  ar
    23    20    21  ar
    24    10     3  am
    25    12    18  am
    26     1    27   1
    27     1    28   1
    28     1    29   1
    29     2    30   1
    30     5    31   1
    31     5    32   1
    32     6    33   1
    33     6    34   1
    34    10    35   1
    35    11    36   1
    36    14    37   1
    37    14    38   1
    38    18    39   1
    39    19    40   1
    40    22    41   1
    41    22    42   1
    42    23    43   1
    43    24    44   1
    44    24    45   1
    45    24    46   1
    46    25    47   1
    47    25    48   1
    48    25    49   1
@<TRIPOS>SUBSTRUCTURE
     1  MOL      2

