@<TRIPOS>MOLECULE
1a30_ligand_009
    49    48
SMALL
GAST_HUCK
****
This file was generated by PARSER (from files_GN.cpp)

@<TRIPOS>ATOM
      1 N          14.4276   24.5245    4.7305 N.4         1 MOL       0.2380
      2 CA         13.0800   23.9585    4.9843 C.3         1 MOL       0.0665
      3 C          12.0122   24.9329    4.8029 C.2         1 MOL       0.2269
      4 O          12.1985   26.1144    5.1054 O.2         1 MOL      -0.3907
      5 CB         13.0293   23.2950    6.4108 C.3         1 MOL       0.0194
      6 CG         12.9769   21.7459    6.4116 C.3         1 MOL       0.0075
      7 CD         11.7443   21.1910    5.8105 C.2         1 MOL       0.0351
      8 OE1        10.6037   21.1012    6.5364 O.co2       1 MOL      -0.5690
      9 OE2        11.6374   21.0551    4.4666 O.co2       1 MOL      -0.5690
     10 N          10.7900   24.5075    4.5219 N.am        1 MOL      -0.2595
     11 CA          9.5789   25.2831    4.4651 C.3         1 MOL       0.1424
     12 C           9.4739   26.2001    5.6093 C.2         1 MOL       0.2051
     13 O           9.0545   27.3461    5.4497 O.2         1 MOL      -0.3943
     14 CB          8.3368   24.3390    4.4382 C.3         1 MOL       0.0406
     15 CG          8.3218   23.4110    3.2874 C.2         1 MOL       0.0393
     16 OD1         7.5180   23.6522    2.2205 O.co2       1 MOL      -0.5688
     17 OD2         8.9182   22.2032    3.3776 O.co2       1 MOL      -0.5688
     18 N           9.8580   25.7654    6.7970 N.am        1 MOL      -0.2694
     19 CA         10.0527   26.5083    8.0193 C.3         1 MOL       0.0946
     20 C          10.1965   25.5628    9.1548 C.2         1 MOL       0.0601
     21 O          10.8742   24.4023    9.0502 O.co2       1 MOL      -0.5666
     22 CB          9.0184   27.6475    8.3114 C.3         1 MOL      -0.0156
     23 CG          7.4633   27.3882    8.3755 C.3         1 MOL      -0.0431
     24 CD1         6.7089   28.1575    7.2558 C.3         1 MOL      -0.0625
     25 CD2         7.0112   25.8996    8.4003 C.3         1 MOL      -0.0625
     26 OXT         9.6741   25.8673   10.3733 O.co2       1 MOL      -0.5666
     27 H1         15.1399   23.8156    4.9223 H           1 MOL       0.2015
     28 H2         14.5893   25.3410    5.3162 H           1 MOL       0.2015
     29 H3         14.5042   24.8101    3.7520 H           1 MOL       0.2015
     30 H4         12.9525   23.1970    4.2116 H           1 MOL       0.1099
     31 H5         12.1786   23.6597    6.9959 H           1 MOL       0.0363
     32 H6         13.9219   23.5855    6.9797 H           1 MOL       0.0363
     33 H7         13.0209   21.3878    7.4515 H           1 MOL       0.0434
     34 H8         13.8495   21.3346    5.8877 H           1 MOL       0.0434
     35 H9         10.7027   23.5497    4.3601 H           1 MOL       0.1886
     36 H10         9.5858   25.8536    3.5304 H           1 MOL       0.0819
     37 H11         7.4295   24.9461    4.4013 H           1 MOL       0.0478
     38 H12         8.3012   23.7433    5.3573 H           1 MOL       0.0478
     39 H13        10.1022   24.8308    6.8436 H           1 MOL       0.1875
     40 H14        11.0328   26.9923    7.9234 H           1 MOL       0.0726
     41 H15         9.2199   28.4244    7.5637 H           1 MOL       0.0308
     42 H16         9.3140   28.1230    9.2586 H           1 MOL       0.0308
     43 H17         7.1127   27.8089    9.3267 H           1 MOL       0.0297
     44 H18         5.6257   28.0933    7.4111 H           1 MOL       0.0232
     45 H19         6.9531   27.7329    6.2742 H           1 MOL       0.0232
     46 H20         6.9905   29.2161    7.2630 H           1 MOL       0.0232
     47 H21         7.4559   25.3739    9.2529 H           1 MOL       0.0232
     48 H22         7.2991   25.3974    7.4738 H           1 MOL       0.0232
     49 H23         5.9221   25.8397    8.4963 H           1 MOL       0.0232
@<TRIPOS>BOND
     1     3     2   1
     2     2     5   1
     3     2     1   1
     4     5     6   1
     5     6     7   1
     6     7     8  ar
     7     7     9  ar
     8     3     4   2
     9    12    11   1
    10    11    14   1
    11    11    10   1
    12    14    15   1
    13    15    16  ar
    14    15    17  ar
    15    12    13   2
    16    19    20   1
    17    19    22   1
    18    18    19   1
    19    22    23   1
    20    23    25   1
    21    23    24   1
    22    20    26  ar
    23    20    21  ar
    24    10     3  am
    25    12    18  am
    26     1    27   1
    27     1    28   1
    28     1    29   1
    29     2    30   1
    30     5    31   1
    31     5    32   1
    32     6    33   1
    33     6    34   1
    34    10    35   1
    35    11    36   1
    36    14    37   1
    37    14    38   1
    38    18    39   1
    39    19    40   1
    40    22    41   1
    41    22    42   1
    42    23    43   1
    43    24    44   1
    44    24    45   1
    45    24    46   1
    46    25    47   1
    47    25    48   1
    48    25    49   1
@<TRIPOS>SUBSTRUCTURE
     1  MOL      2

