@<TRIPOS>MOLECULE
1a30_ligand_038
    49    48
SMALL
GAST_HUCK
****
This file was generated by PARSER (from files_GN.cpp)

@<TRIPOS>ATOM
      1 N          14.8255   24.3862    4.7868 N.4         1 MOL       0.2380
      2 CA         13.6307   23.7235    5.3271 C.3         1 MOL       0.0665
      3 C          13.8928   23.4097    6.7252 C.2         1 MOL       0.2269
      4 O          13.3077   24.0493    7.5906 O.2         1 MOL      -0.3907
      5 CB         13.2180   22.4889    4.4630 C.3         1 MOL       0.0194
      6 CG         11.7532   22.0139    4.6625 C.3         1 MOL       0.0075
      7 CD         11.4786   21.4012    5.9716 C.2         1 MOL       0.0351
      8 OE1        10.6876   22.0248    6.8729 O.co2       1 MOL      -0.5690
      9 OE2        11.7773   20.1024    6.1879 O.co2       1 MOL      -0.5690
     10 N          14.7842   22.4733    7.0407 N.am        1 MOL      -0.2595
     11 CA         15.1914   22.0545    8.3578 C.3         1 MOL       0.1424
     12 C          16.1943   20.9891    8.2214 C.2         1 MOL       0.2051
     13 O          16.0526   19.9258    8.8118 O.2         1 MOL      -0.3943
     14 CB         13.9404   21.6854    9.2302 C.3         1 MOL       0.0406
     15 CG         14.2444   21.0560   10.5287 C.2         1 MOL       0.0393
     16 OD1        14.3542   19.7119   10.6143 O.co2       1 MOL      -0.5688
     17 OD2        14.5126   21.8042   11.6229 O.co2       1 MOL      -0.5688
     18 N          17.3123   21.1987    7.5301 N.am        1 MOL      -0.2694
     19 CA         18.4758   20.3507    7.5035 C.3         1 MOL       0.0946
     20 C          19.5447   21.0202    6.7285 C.2         1 MOL       0.0601
     21 O          20.5106   21.7320    7.3495 O.co2       1 MOL      -0.5666
     22 CB         18.2434   18.8786    7.0274 C.3         1 MOL      -0.0156
     23 CG         18.3691   18.5371    5.5074 C.3         1 MOL      -0.0431
     24 CD1        18.3307   17.0004    5.2946 C.3         1 MOL      -0.0625
     25 CD2        17.2849   19.2229    4.6332 C.3         1 MOL      -0.0625
     26 OXT        19.5569   21.0195    5.3775 O.co2       1 MOL      -0.5666
     27 H1         14.6696   24.6586    3.8171 H           1 MOL       0.2015
     28 H2         15.6327   23.7636    4.8406 H           1 MOL       0.2015
     29 H3         15.0043   25.2364    5.3247 H           1 MOL       0.2015
     30 H4         12.8303   24.4650    5.2535 H           1 MOL       0.1099
     31 H5         13.8986   21.6515    4.6346 H           1 MOL       0.0363
     32 H6         13.3216   22.7621    3.4101 H           1 MOL       0.0363
     33 H7         11.5140   21.2785    3.8915 H           1 MOL       0.0434
     34 H8         11.0859   22.8649    4.5137 H           1 MOL       0.0434
     35 H9         15.2333   22.0401    6.2968 H           1 MOL       0.1886
     36 H10        15.7003   22.8975    8.8380 H           1 MOL       0.0819
     37 H11        13.2940   21.0216    8.6486 H           1 MOL       0.0478
     38 H12        13.3633   22.5800    9.4596 H           1 MOL       0.0478
     39 H13        17.3725   22.0334    7.0370 H           1 MOL       0.1875
     40 H14        18.8305   20.2933    8.5399 H           1 MOL       0.0726
     41 H15        17.2579   18.5510    7.3605 H           1 MOL       0.0308
     42 H16        18.9638   18.2598    7.5702 H           1 MOL       0.0308
     43 H17        19.3502   18.8662    5.1609 H           1 MOL       0.0297
     44 H18        18.5590   16.7561    4.2543 H           1 MOL       0.0232
     45 H19        17.3420   16.6076    5.5394 H           1 MOL       0.0232
     46 H20        19.0655   16.5035    5.9288 H           1 MOL       0.0232
     47 H21        17.4116   20.3054    4.6350 H           1 MOL       0.0232
     48 H22        16.2905   18.9858    5.0092 H           1 MOL       0.0232
     49 H23        17.3557   18.8879    3.5973 H           1 MOL       0.0232
@<TRIPOS>BOND
     1     3     2   1
     2     2     5   1
     3     2     1   1
     4     5     6   1
     5     6     7   1
     6     7     8  ar
     7     7     9  ar
     8     3     4   2
     9    12    11   1
    10    11    14   1
    11    11    10   1
    12    14    15   1
    13    15    16  ar
    14    15    17  ar
    15    12    13   2
    16    19    20   1
    17    19    22   1
    18    18    19   1
    19    22    23   1
    20    23    25   1
    21    23    24   1
    22    20    26  ar
    23    20    21  ar
    24    10     3  am
    25    12    18  am
    26     1    27   1
    27     1    28   1
    28     1    29   1
    29     2    30   1
    30     5    31   1
    31     5    32   1
    32     6    33   1
    33     6    34   1
    34    10    35   1
    35    11    36   1
    36    14    37   1
    37    14    38   1
    38    18    39   1
    39    19    40   1
    40    22    41   1
    41    22    42   1
    42    23    43   1
    43    24    44   1
    44    24    45   1
    45    24    46   1
    46    25    47   1
    47    25    48   1
    48    25    49   1
@<TRIPOS>SUBSTRUCTURE
     1  MOL      2

