@<TRIPOS>MOLECULE
1a30_ligand_008
    49    48
SMALL
GAST_HUCK
****
This file was generated by PARSER (from files_GN.cpp)

@<TRIPOS>ATOM
      1 N           4.6800   32.1731    6.4461 N.4         1 MOL       0.2380
      2 CA          3.2178   32.1797    6.3251 C.3         1 MOL       0.0665
      3 C           2.7248   30.9866    6.9970 C.2         1 MOL       0.2269
      4 O           2.0249   31.0984    8.0058 O.2         1 MOL      -0.3907
      5 CB          2.7629   32.2886    4.8357 C.3         1 MOL       0.0194
      6 CG          3.2424   33.5527    4.0611 C.3         1 MOL       0.0075
      7 CD          4.5748   33.4426    3.4217 C.2         1 MOL       0.0351
      8 OE1         4.8570   32.3596    2.6616 O.co2       1 MOL      -0.5690
      9 OE2         5.2670   34.5697    3.1384 O.co2       1 MOL      -0.5690
     10 N           3.1161   29.7914    6.5650 N.am        1 MOL      -0.2595
     11 CA          2.9294   28.4949    7.1750 C.3         1 MOL       0.1424
     12 C           4.2288   27.8238    7.3690 C.2         1 MOL       0.2051
     13 O           4.2211   26.6540    7.7608 O.2         1 MOL      -0.3943
     14 CB          1.9363   27.7486    6.2129 C.3         1 MOL       0.0406
     15 CG          1.5999   26.3557    6.5919 C.2         1 MOL       0.0393
     16 OD1         2.5655   25.5010    6.9817 O.co2       1 MOL      -0.5688
     17 OD2         0.4416   25.7989    6.1179 O.co2       1 MOL      -0.5688
     18 N           5.3821   28.4753    7.2253 N.am        1 MOL      -0.2694
     19 CA          6.7366   27.9712    7.1797 C.3         1 MOL       0.0946
     20 C           6.9826   27.4901    5.8001 C.2         1 MOL       0.0601
     21 O           8.0820   27.8621    5.1127 O.co2       1 MOL      -0.5666
     22 CB          7.1325   26.9213    8.2648 C.3         1 MOL      -0.0156
     23 CG          8.6020   26.9488    8.8214 C.3         1 MOL      -0.0431
     24 CD1         8.9325   25.5911    9.5141 C.3         1 MOL      -0.0625
     25 CD2         9.7176   27.2946    7.7954 C.3         1 MOL      -0.0625
     26 OXT         6.0830   26.6993    5.1712 O.co2       1 MOL      -0.5666
     27 H1          5.0611   33.0573    6.0919 H           1 MOL       0.2015
     28 H2          5.0493   31.3967    5.8912 H           1 MOL       0.2015
     29 H3          4.9513   32.0652    7.4267 H           1 MOL       0.2015
     30 H4          2.8588   33.0737    6.8492 H           1 MOL       0.1099
     31 H5          1.6673   32.2994    4.8252 H           1 MOL       0.0363
     32 H6          3.0761   31.3967    4.2776 H           1 MOL       0.0363
     33 H7          3.2374   34.4155    4.7357 H           1 MOL       0.0434
     34 H8          2.5276   33.7664    3.2624 H           1 MOL       0.0434
     35 H9          3.6500   29.7906    5.7548 H           1 MOL       0.1886
     36 H10         2.4291   28.5823    8.1455 H           1 MOL       0.0819
     37 H11         2.3381   27.7476    5.1891 H           1 MOL       0.0478
     38 H12         0.9906   28.3088    6.1800 H           1 MOL       0.0478
     39 H13         5.2923   29.4192    7.0264 H           1 MOL       0.1875
     40 H14         7.3498   28.8603    7.3403 H           1 MOL       0.0726
     41 H15         6.9127   25.9209    7.8830 H           1 MOL       0.0308
     42 H16         6.4767   27.0730    9.1266 H           1 MOL       0.0308
     43 H17         8.6401   27.7221    9.5960 H           1 MOL       0.0297
     44 H18         9.8772   25.6602   10.0618 H           1 MOL       0.0232
     45 H19         9.0187   24.7939    8.7685 H           1 MOL       0.0232
     46 H20         8.1476   25.3207   10.2217 H           1 MOL       0.0232
     47 H21         9.6223   28.3244    7.4496 H           1 MOL       0.0232
     48 H22         9.6777   26.6239    6.9346 H           1 MOL       0.0232
     49 H23        10.7039   27.1999    8.2612 H           1 MOL       0.0232
@<TRIPOS>BOND
     1     3     2   1
     2     2     5   1
     3     2     1   1
     4     5     6   1
     5     6     7   1
     6     7     8  ar
     7     7     9  ar
     8     3     4   2
     9    12    11   1
    10    11    14   1
    11    11    10   1
    12    14    15   1
    13    15    16  ar
    14    15    17  ar
    15    12    13   2
    16    19    20   1
    17    19    22   1
    18    18    19   1
    19    22    23   1
    20    23    25   1
    21    23    24   1
    22    20    26  ar
    23    20    21  ar
    24    10     3  am
    25    12    18  am
    26     1    27   1
    27     1    28   1
    28     1    29   1
    29     2    30   1
    30     5    31   1
    31     5    32   1
    32     6    33   1
    33     6    34   1
    34    10    35   1
    35    11    36   1
    36    14    37   1
    37    14    38   1
    38    18    39   1
    39    19    40   1
    40    22    41   1
    41    22    42   1
    42    23    43   1
    43    24    44   1
    44    24    45   1
    45    24    46   1
    46    25    47   1
    47    25    48   1
    48    25    49   1
@<TRIPOS>SUBSTRUCTURE
     1  MOL      2

