@<TRIPOS>MOLECULE
1a30_ligand_020
    49    48
SMALL
GAST_HUCK
****
This file was generated by PARSER (from files_GN.cpp)

@<TRIPOS>ATOM
      1 N           8.5606   24.2155    5.2302 N.4         1 MOL       0.2380
      2 CA          9.5641   25.2597    5.5155 C.3         1 MOL       0.0665
      3 C           9.0747   26.5530    5.0405 C.2         1 MOL       0.2269
      4 O           9.0501   27.4907    5.8280 O.2         1 MOL      -0.3907
      5 CB         10.9451   24.9020    4.8936 C.3         1 MOL       0.0194
      6 CG         11.7046   23.6978    5.5313 C.3         1 MOL       0.0075
      7 CD         11.0329   22.3917    5.4338 C.2         1 MOL       0.0351
      8 OE1        10.6419   21.8853    4.2412 O.co2       1 MOL      -0.5690
      9 OE2        10.8148   21.6310    6.5334 O.co2       1 MOL      -0.5690
     10 N           8.6040   26.6859    3.8028 N.am        1 MOL      -0.2595
     11 CA          7.9091   27.8202    3.2464 C.3         1 MOL       0.1424
     12 C           6.4793   27.5047    3.2644 C.2         1 MOL       0.2051
     13 O           5.8207   27.4200    2.2318 O.2         1 MOL      -0.3943
     14 CB          8.5348   28.1861    1.8401 C.3         1 MOL       0.0406
     15 CG          9.3585   29.4125    1.7511 C.2         1 MOL       0.0393
     16 OD1         9.7904   29.8224    0.5370 O.co2       1 MOL      -0.5688
     17 OD2         9.7111   30.1689    2.8159 O.co2       1 MOL      -0.5688
     18 N           5.8703   27.2661    4.4299 N.am        1 MOL      -0.2694
     19 CA          4.4980   26.9009    4.6508 C.3         1 MOL       0.0946
     20 C           3.5603   27.9829    4.2556 C.2         1 MOL       0.0601
     21 O           2.8216   27.8695    3.1231 O.co2       1 MOL      -0.5666
     22 CB          4.2597   26.4463    6.1297 C.3         1 MOL      -0.0156
     23 CG          4.8189   27.4030    7.2541 C.3         1 MOL      -0.0431
     24 CD1         3.7200   27.8512    8.2550 C.3         1 MOL      -0.0625
     25 CD2         6.0160   26.7762    8.0222 C.3         1 MOL      -0.0625
     26 OXT         3.5343   29.1672    4.9051 O.co2       1 MOL      -0.5666
     27 H1          8.8351   23.3486    5.6897 H           1 MOL       0.2015
     28 H2          8.5022   24.0550    4.2187 H           1 MOL       0.2015
     29 H3          7.6403   24.4841    5.5800 H           1 MOL       0.2015
     30 H4          9.6755   25.2904    6.6048 H           1 MOL       0.1099
     31 H5         11.5997   25.7710    5.0027 H           1 MOL       0.0363
     32 H6         10.8253   24.7197    3.8239 H           1 MOL       0.0363
     33 H7         11.9019   23.9222    6.5818 H           1 MOL       0.0434
     34 H8         12.6742   23.6140    5.0319 H           1 MOL       0.0434
     35 H9          8.6401   25.8969    3.2413 H           1 MOL       0.1886
     36 H10         8.0311   28.6829    3.9056 H           1 MOL       0.0819
     37 H11         7.7524   28.3277    1.0942 H           1 MOL       0.0478
     38 H12         9.1481   27.3595    1.4722 H           1 MOL       0.0478
     39 H13         6.4373   27.3029    5.2139 H           1 MOL       0.1875
     40 H14         4.2726   26.0310    4.0210 H           1 MOL       0.0726
     41 H15         4.7135   25.4609    6.2361 H           1 MOL       0.0308
     42 H16         3.1885   26.2838    6.2768 H           1 MOL       0.0308
     43 H17         5.1948   28.3220    6.7931 H           1 MOL       0.0297
     44 H18         4.1270   28.5519    8.9904 H           1 MOL       0.0232
     45 H19         3.3076   26.9885    8.7867 H           1 MOL       0.0232
     46 H20         2.9071   28.3542    7.7259 H           1 MOL       0.0232
     47 H21         6.8188   26.5101    7.3322 H           1 MOL       0.0232
     48 H22         5.7025   25.8722    8.5484 H           1 MOL       0.0232
     49 H23         6.4192   27.4805    8.7583 H           1 MOL       0.0232
@<TRIPOS>BOND
     1     3     2   1
     2     2     5   1
     3     2     1   1
     4     5     6   1
     5     6     7   1
     6     7     8  ar
     7     7     9  ar
     8     3     4   2
     9    12    11   1
    10    11    14   1
    11    11    10   1
    12    14    15   1
    13    15    16  ar
    14    15    17  ar
    15    12    13   2
    16    19    20   1
    17    19    22   1
    18    18    19   1
    19    22    23   1
    20    23    25   1
    21    23    24   1
    22    20    26  ar
    23    20    21  ar
    24    10     3  am
    25    12    18  am
    26     1    27   1
    27     1    28   1
    28     1    29   1
    29     2    30   1
    30     5    31   1
    31     5    32   1
    32     6    33   1
    33     6    34   1
    34    10    35   1
    35    11    36   1
    36    14    37   1
    37    14    38   1
    38    18    39   1
    39    19    40   1
    40    22    41   1
    41    22    42   1
    42    23    43   1
    43    24    44   1
    44    24    45   1
    45    24    46   1
    46    25    47   1
    47    25    48   1
    48    25    49   1
@<TRIPOS>SUBSTRUCTURE
     1  MOL      2

