@<TRIPOS>MOLECULE
1a30_ligand_040
    49    48
SMALL
GAST_HUCK
****
This file was generated by PARSER (from files_GN.cpp)

@<TRIPOS>ATOM
      1 N          14.1414   24.5382    4.8310 N.4         1 MOL       0.2380
      2 CA         14.5432   23.5102    5.8085 C.3         1 MOL       0.0665
      3 C          14.4615   22.2032    5.1559 C.2         1 MOL       0.2269
      4 O          13.3537   21.7463    4.9390 O.2         1 MOL      -0.3907
      5 CB         13.7815   23.6950    7.1693 C.3         1 MOL       0.0194
      6 CG         12.6715   22.6814    7.6025 C.3         1 MOL       0.0075
      7 CD         11.5269   22.5205    6.6872 C.2         1 MOL       0.0351
      8 OE1        11.1219   23.5401    5.8842 O.co2       1 MOL      -0.5690
      9 OE2        10.9925   21.2977    6.4522 O.co2       1 MOL      -0.5690
     10 N          15.5596   21.6097    4.6751 N.am        1 MOL      -0.2595
     11 CA         15.7058   20.4251    3.8549 C.3         1 MOL       0.1424
     12 C          14.4712   19.9404    3.2119 C.2         1 MOL       0.2051
     13 O          14.1206   18.7718    3.3365 O.2         1 MOL      -0.3943
     14 CB         16.4902   19.3613    4.6882 C.3         1 MOL       0.0406
     15 CG         17.1332   18.3351    3.8509 C.2         1 MOL       0.0393
     16 OD1        18.2973   18.6048    3.2219 O.co2       1 MOL      -0.5688
     17 OD2        16.5601   17.1239    3.6657 O.co2       1 MOL      -0.5688
     18 N          13.6656   20.8251    2.6327 N.am        1 MOL      -0.2694
     19 CA         12.2982   20.6172    2.2132 C.3         1 MOL       0.0946
     20 C          12.2677   19.6714    1.0635 C.2         1 MOL       0.0601
     21 O          12.8756   18.4697    1.1657 O.co2       1 MOL      -0.5666
     22 CB         11.6355   22.0125    1.9732 C.3         1 MOL      -0.0156
     23 CG         10.1568   22.0487    1.4448 C.3         1 MOL      -0.0431
     24 CD1         9.1705   21.1741    2.2685 C.3         1 MOL      -0.0625
     25 CD2         9.6450   23.5128    1.4135 C.3         1 MOL      -0.0625
     26 OXT        11.6860   19.9620   -0.1171 O.co2       1 MOL      -0.5666
     27 H1         14.3932   25.4565    5.2134 H           1 MOL       0.2015
     28 H2         13.1360   24.4974    4.6653 H           1 MOL       0.2015
     29 H3         14.6352   24.4126    3.9441 H           1 MOL       0.2015
     30 H4         15.6056   23.7264    6.0067 H           1 MOL       0.1099
     31 H5         13.3281   24.6924    7.1903 H           1 MOL       0.0363
     32 H6         14.5235   23.6978    7.9746 H           1 MOL       0.0363
     33 H7         12.2661   23.0045    8.5616 H           1 MOL       0.0434
     34 H8         13.1389   21.7016    7.7627 H           1 MOL       0.0434
     35 H9         16.4095   22.0459    4.8994 H           1 MOL       0.1886
     36 H10        16.3570   20.7496    3.0397 H           1 MOL       0.0819
     37 H11        15.8146   18.8838    5.4024 H           1 MOL       0.0478
     38 H12        17.2760   19.8452    5.2709 H           1 MOL       0.0478
     39 H13        13.9811   21.7473    2.6254 H           1 MOL       0.1875
     40 H14        11.7603   20.1605    3.0420 H           1 MOL       0.0726
     41 H15        12.2645   22.5746    1.2795 H           1 MOL       0.0308
     42 H16        11.6557   22.5626    2.9202 H           1 MOL       0.0308
     43 H17        10.1401   21.6815    0.4126 H           1 MOL       0.0297
     44 H18         8.1553   21.2874    1.8795 H           1 MOL       0.0232
     45 H19         9.1724   21.4740    3.3180 H           1 MOL       0.0232
     46 H20         9.4296   20.1176    2.1992 H           1 MOL       0.0232
     47 H21        10.3021   24.1338    0.8032 H           1 MOL       0.0232
     48 H22         9.6067   23.9267    2.4222 H           1 MOL       0.0232
     49 H23         8.6427   23.5570    0.9784 H           1 MOL       0.0232
@<TRIPOS>BOND
     1     3     2   1
     2     2     5   1
     3     2     1   1
     4     5     6   1
     5     6     7   1
     6     7     8  ar
     7     7     9  ar
     8     3     4   2
     9    12    11   1
    10    11    14   1
    11    11    10   1
    12    14    15   1
    13    15    16  ar
    14    15    17  ar
    15    12    13   2
    16    19    20   1
    17    19    22   1
    18    18    19   1
    19    22    23   1
    20    23    25   1
    21    23    24   1
    22    20    26  ar
    23    20    21  ar
    24    10     3  am
    25    12    18  am
    26     1    27   1
    27     1    28   1
    28     1    29   1
    29     2    30   1
    30     5    31   1
    31     5    32   1
    32     6    33   1
    33     6    34   1
    34    10    35   1
    35    11    36   1
    36    14    37   1
    37    14    38   1
    38    18    39   1
    39    19    40   1
    40    22    41   1
    41    22    42   1
    42    23    43   1
    43    24    44   1
    44    24    45   1
    45    24    46   1
    46    25    47   1
    47    25    48   1
    48    25    49   1
@<TRIPOS>SUBSTRUCTURE
     1  MOL      2

