@<TRIPOS>MOLECULE
1a30_ligand_069
    49    48
SMALL
GAST_HUCK
****
This file was generated by PARSER (from files_GN.cpp)

@<TRIPOS>ATOM
      1 N          17.3486   16.1744    5.4745 N.4         1 MOL       0.2380
      2 CA         17.9363   17.1465    4.5359 C.3         1 MOL       0.0665
      3 C          17.9286   18.5131    5.0427 C.2         1 MOL       0.2269
      4 O          18.8772   19.2137    4.7058 O.2         1 MOL      -0.3907
      5 CB         17.3453   17.0072    3.0939 C.3         1 MOL       0.0194
      6 CG         16.0621   17.8189    2.7191 C.3         1 MOL       0.0075
      7 CD         14.7436   17.2912    3.1377 C.2         1 MOL       0.0351
      8 OE1        14.5868   16.4723    4.2099 O.co2       1 MOL      -0.5690
      9 OE2        13.6667   17.5448    2.3577 O.co2       1 MOL      -0.5690
     10 N          16.9499   19.0042    5.7963 N.am        1 MOL      -0.2595
     11 CA         16.8586   20.3414    6.3289 C.3         1 MOL       0.1424
     12 C          16.9947   20.2991    7.7821 C.2         1 MOL       0.2051
     13 O          18.0795   20.6105    8.2638 O.2         1 MOL      -0.3943
     14 CB         15.5744   21.0971    5.8362 C.3         1 MOL       0.0406
     15 CG         14.4878   20.2524    5.3142 C.2         1 MOL       0.0393
     16 OD1        13.5026   19.8059    6.1337 O.co2       1 MOL      -0.5688
     17 OD2        14.3880   20.0320    3.9798 O.co2       1 MOL      -0.5688
     18 N          15.9791   19.9723    8.5792 N.am        1 MOL      -0.2694
     19 CA         15.9987   19.9581   10.0255 C.3         1 MOL       0.0946
     20 C          16.0188   18.5605   10.4911 C.2         1 MOL       0.0601
     21 O          15.2059   17.6308    9.9190 O.co2       1 MOL      -0.5666
     22 CB         14.8062   20.7367   10.6726 C.3         1 MOL      -0.0156
     23 CG         14.4941   22.1368   10.0371 C.3         1 MOL      -0.0431
     24 CD1        13.4106   22.0415    8.9186 C.3         1 MOL      -0.0625
     25 CD2        14.0671   23.1961   11.0914 C.3         1 MOL      -0.0625
     26 OXT        16.7703   18.1811   11.5585 O.co2       1 MOL      -0.5666
     27 H1         17.3748   15.2355    5.0507 H           1 MOL       0.2015
     28 H2         16.3822   16.4314    5.6906 H           1 MOL       0.2015
     29 H3         17.9011   16.1670    6.3401 H           1 MOL       0.2015
     30 H4         18.9841   16.8249    4.4699 H           1 MOL       0.1099
     31 H5         17.1614   15.9451    2.8823 H           1 MOL       0.0363
     32 H6         18.1282   17.3292    2.3951 H           1 MOL       0.0363
     33 H7         16.0424   17.8801    1.6216 H           1 MOL       0.0434
     34 H8         16.1397   18.8436    3.1095 H           1 MOL       0.0434
     35 H9         16.1859   18.4243    5.9524 H           1 MOL       0.1886
     36 H10        17.6966   20.9375    5.9492 H           1 MOL       0.0819
     37 H11        15.8834   21.7807    5.0295 H           1 MOL       0.0478
     38 H12        15.1665   21.7262    6.6395 H           1 MOL       0.0478
     39 H13        15.1442   19.7094    8.1532 H           1 MOL       0.1875
     40 H14        16.9119   20.4360   10.4036 H           1 MOL       0.0726
     41 H15        15.0519   20.8698   11.7328 H           1 MOL       0.0308
     42 H16        13.9018   20.1136   10.6491 H           1 MOL       0.0308
     43 H17        15.4052   22.5219    9.5663 H           1 MOL       0.0297
     44 H18        13.3815   22.9652    8.3264 H           1 MOL       0.0232
     45 H19        12.4216   21.8796    9.3624 H           1 MOL       0.0232
     46 H20        13.6247   21.2086    8.2420 H           1 MOL       0.0232
     47 H21        14.8729   23.3543   11.8122 H           1 MOL       0.0232
     48 H22        13.1763   22.8649   11.6296 H           1 MOL       0.0232
     49 H23        13.8529   24.1487   10.6009 H           1 MOL       0.0232
@<TRIPOS>BOND
     1     3     2   1
     2     2     5   1
     3     2     1   1
     4     5     6   1
     5     6     7   1
     6     7     8  ar
     7     7     9  ar
     8     3     4   2
     9    12    11   1
    10    11    14   1
    11    11    10   1
    12    14    15   1
    13    15    16  ar
    14    15    17  ar
    15    12    13   2
    16    19    20   1
    17    19    22   1
    18    18    19   1
    19    22    23   1
    20    23    25   1
    21    23    24   1
    22    20    26  ar
    23    20    21  ar
    24    10     3  am
    25    12    18  am
    26     1    27   1
    27     1    28   1
    28     1    29   1
    29     2    30   1
    30     5    31   1
    31     5    32   1
    32     6    33   1
    33     6    34   1
    34    10    35   1
    35    11    36   1
    36    14    37   1
    37    14    38   1
    38    18    39   1
    39    19    40   1
    40    22    41   1
    41    22    42   1
    42    23    43   1
    43    24    44   1
    44    24    45   1
    45    24    46   1
    46    25    47   1
    47    25    48   1
    48    25    49   1
@<TRIPOS>SUBSTRUCTURE
     1  MOL      2

