@<TRIPOS>MOLECULE
1a30_ligand_048
    49    48
SMALL
GAST_HUCK
****
This file was generated by PARSER (from files_GN.cpp)

@<TRIPOS>ATOM
      1 N          13.7039   24.8939    4.7128 N.4         1 MOL       0.2380
      2 CA         13.2799   23.5108    5.0227 C.3         1 MOL       0.0665
      3 C          14.3761   22.5396    4.9195 C.2         1 MOL       0.2269
      4 O          15.5206   22.9342    4.7024 O.2         1 MOL      -0.3907
      5 CB         12.0073   23.1505    4.1882 C.3         1 MOL       0.0194
      6 CG         12.2383   22.9163    2.6659 C.3         1 MOL       0.0075
      7 CD         11.2250   22.0219    2.0667 C.2         1 MOL       0.0351
      8 OE1        11.5767   20.7865    1.6423 O.co2       1 MOL      -0.5690
      9 OE2         9.9146   22.3645    2.0476 O.co2       1 MOL      -0.5690
     10 N          14.1303   21.2326    5.0139 N.am        1 MOL      -0.2595
     11 CA         15.0149   20.1235    4.7645 C.3         1 MOL       0.1424
     12 C          15.8176   19.7710    5.9371 C.2         1 MOL       0.2051
     13 O          15.3441   19.9828    7.0459 O.2         1 MOL      -0.3943
     14 CB         15.7937   20.3663    3.4207 C.3         1 MOL       0.0406
     15 CG         16.2309   19.1432    2.7141 C.2         1 MOL       0.0393
     16 OD1        17.5186   18.9954    2.3259 O.co2       1 MOL      -0.5688
     17 OD2        15.3130   18.2561    2.2676 O.co2       1 MOL      -0.5688
     18 N          16.9472   19.0720    5.8273 N.am        1 MOL      -0.2694
     19 CA         17.8390   18.6563    6.8832 C.3         1 MOL       0.0946
     20 C          19.1595   19.3037    6.7323 C.2         1 MOL       0.0601
     21 O          19.9863   19.4017    7.7973 O.co2       1 MOL      -0.5666
     22 CB         17.9334   17.0993    6.9937 C.3         1 MOL      -0.0156
     23 CG         18.3407   16.2140    5.7661 C.3         1 MOL      -0.0431
     24 CD1        17.2832   16.1914    4.6266 C.3         1 MOL      -0.0625
     25 CD2        19.7529   16.5094    5.1960 C.3         1 MOL      -0.0625
     26 OXT        19.5508   19.8562    5.5613 O.co2       1 MOL      -0.5666
     27 H1         12.8865   25.5086    4.7028 H           1 MOL       0.2015
     28 H2         14.1705   24.9312    3.7990 H           1 MOL       0.2015
     29 H3         14.3514   25.2220    5.4365 H           1 MOL       0.2015
     30 H4         12.9705   23.5201    6.0718 H           1 MOL       0.1099
     31 H5         11.2761   23.9516    4.3021 H           1 MOL       0.0363
     32 H6         11.5545   22.2554    4.6267 H           1 MOL       0.0363
     33 H7         13.2236   22.4756    2.4919 H           1 MOL       0.0434
     34 H8         12.2106   23.8745    2.1382 H           1 MOL       0.0434
     35 H9         13.2110   20.9922    5.2053 H           1 MOL       0.1886
     36 H10        14.3393   19.2764    4.6045 H           1 MOL       0.0819
     37 H11        16.6672   20.9898    3.6223 H           1 MOL       0.0478
     38 H12        15.1571   20.9161    2.7189 H           1 MOL       0.0478
     39 H13        17.2262   18.8479    4.9283 H           1 MOL       0.1875
     40 H14        17.4623   19.0138    7.8464 H           1 MOL       0.0726
     41 H15        16.9553   16.7476    7.3394 H           1 MOL       0.0308
     42 H16        18.6264   16.8688    7.8103 H           1 MOL       0.0308
     43 H17        18.3853   15.1848    6.1483 H           1 MOL       0.0297
     44 H18        17.5387   15.4170    3.8882 H           1 MOL       0.0232
     45 H19        17.2579   17.1507    4.1070 H           1 MOL       0.0232
     46 H20        16.2848   15.9783    5.0202 H           1 MOL       0.0232
     47 H21        20.4953   16.4756    5.9996 H           1 MOL       0.0232
     48 H22        19.7899   17.4861    4.7128 H           1 MOL       0.0232
     49 H23        20.0219   15.7525    4.4542 H           1 MOL       0.0232
@<TRIPOS>BOND
     1     3     2   1
     2     2     5   1
     3     2     1   1
     4     5     6   1
     5     6     7   1
     6     7     8  ar
     7     7     9  ar
     8     3     4   2
     9    12    11   1
    10    11    14   1
    11    11    10   1
    12    14    15   1
    13    15    16  ar
    14    15    17  ar
    15    12    13   2
    16    19    20   1
    17    19    22   1
    18    18    19   1
    19    22    23   1
    20    23    25   1
    21    23    24   1
    22    20    26  ar
    23    20    21  ar
    24    10     3  am
    25    12    18  am
    26     1    27   1
    27     1    28   1
    28     1    29   1
    29     2    30   1
    30     5    31   1
    31     5    32   1
    32     6    33   1
    33     6    34   1
    34    10    35   1
    35    11    36   1
    36    14    37   1
    37    14    38   1
    38    18    39   1
    39    19    40   1
    40    22    41   1
    41    22    42   1
    42    23    43   1
    43    24    44   1
    44    24    45   1
    45    24    46   1
    46    25    47   1
    47    25    48   1
    48    25    49   1
@<TRIPOS>SUBSTRUCTURE
     1  MOL      2

