@<TRIPOS>MOLECULE
1a30_ligand_090
    49    48
SMALL
GAST_HUCK
****
This file was generated by PARSER (from files_GN.cpp)

@<TRIPOS>ATOM
      1 N          10.0791   24.7867    6.4172 N.4         1 MOL       0.2380
      2 CA          9.8582   23.5424    5.6620 C.3         1 MOL       0.0665
      3 C          10.7141   22.4949    6.1955 C.2         1 MOL       0.2269
      4 O          10.2061   21.5279    6.7583 O.2         1 MOL      -0.3907
      5 CB         10.0429   23.8140    4.1357 C.3         1 MOL       0.0194
      6 CG         10.2007   22.5534    3.2336 C.3         1 MOL       0.0075
      7 CD          8.9814   21.7537    3.0708 C.2         1 MOL       0.0351
      8 OE1         9.0820   20.4580    2.6831 O.co2       1 MOL      -0.5690
      9 OE2         7.7811   22.3587    2.9055 O.co2       1 MOL      -0.5690
     10 N          12.0382   22.6048    6.0987 N.am        1 MOL      -0.2595
     11 CA         13.0119   21.6369    6.5347 C.3         1 MOL       0.1424
     12 C          13.1966   21.6106    7.9881 C.2         1 MOL       0.2051
     13 O          12.5862   22.3919    8.7036 O.2         1 MOL      -0.3943
     14 CB         14.3686   21.8754    5.7692 C.3         1 MOL       0.0406
     15 CG         14.7679   20.7366    4.9315 C.2         1 MOL       0.0393
     16 OD1        14.0131   20.3637    3.8663 O.co2       1 MOL      -0.5688
     17 OD2        15.8788   20.0169    5.1994 O.co2       1 MOL      -0.5688
     18 N          14.0157   20.7114    8.5260 N.am        1 MOL      -0.2694
     19 CA         14.2586   20.4942    9.9332 C.3         1 MOL       0.0946
     20 C          14.7834   21.6857   10.6328 C.2         1 MOL       0.0601
     21 O          14.7094   21.7994   11.9826 O.co2       1 MOL      -0.5666
     22 CB         15.1184   19.1922   10.1339 C.3         1 MOL      -0.0156
     23 CG         16.6852   19.2373   10.0317 C.3         1 MOL      -0.0431
     24 CD1        17.2413   20.3709    9.1244 C.3         1 MOL      -0.0625
     25 CD2        17.3942   19.2157   11.4212 C.3         1 MOL      -0.0625
     26 OXT        15.2261   22.7891    9.9669 O.co2       1 MOL      -0.5666
     27 H1          9.4390   25.5087    6.0809 H           1 MOL       0.2015
     28 H2         11.0406   25.1102    6.2962 H           1 MOL       0.2015
     29 H3          9.9017   24.6220    7.4093 H           1 MOL       0.2015
     30 H4          8.8106   23.2783    5.8209 H           1 MOL       0.1099
     31 H5         10.9235   24.4426    3.9854 H           1 MOL       0.0363
     32 H6          9.1793   24.3801    3.7761 H           1 MOL       0.0363
     33 H7         10.9947   21.9152    3.6471 H           1 MOL       0.0434
     34 H8         10.5365   22.8756    2.2393 H           1 MOL       0.0434
     35 H9         12.3760   23.4083    5.6727 H           1 MOL       0.1886
     36 H10        12.6233   20.6499    6.2611 H           1 MOL       0.0819
     37 H11        15.1827   22.1169    6.4639 H           1 MOL       0.0478
     38 H12        14.2960   22.7455    5.0945 H           1 MOL       0.0478
     39 H13        14.4583   20.1169    7.9021 H           1 MOL       0.1875
     40 H14        13.2865   20.2936   10.3966 H           1 MOL       0.0726
     41 H15        14.7652   18.4627    9.4007 H           1 MOL       0.0308
     42 H16        14.8553   18.7685   11.1047 H           1 MOL       0.0308
     43 H17        16.9876   18.2961    9.5510 H           1 MOL       0.0297
     44 H18        18.3236   20.2656    9.0108 H           1 MOL       0.0232
     45 H19        17.0338   21.3517    9.5575 H           1 MOL       0.0232
     46 H20        16.7786   20.3032    8.1349 H           1 MOL       0.0232
     47 H21        17.1192   18.3140   11.9731 H           1 MOL       0.0232
     48 H22        17.1193   20.0862   12.0200 H           1 MOL       0.0232
     49 H23        18.4807   19.2057   11.2953 H           1 MOL       0.0232
@<TRIPOS>BOND
     1     3     2   1
     2     2     5   1
     3     2     1   1
     4     5     6   1
     5     6     7   1
     6     7     8  ar
     7     7     9  ar
     8     3     4   2
     9    12    11   1
    10    11    14   1
    11    11    10   1
    12    14    15   1
    13    15    16  ar
    14    15    17  ar
    15    12    13   2
    16    19    20   1
    17    19    22   1
    18    18    19   1
    19    22    23   1
    20    23    25   1
    21    23    24   1
    22    20    26  ar
    23    20    21  ar
    24    10     3  am
    25    12    18  am
    26     1    27   1
    27     1    28   1
    28     1    29   1
    29     2    30   1
    30     5    31   1
    31     5    32   1
    32     6    33   1
    33     6    34   1
    34    10    35   1
    35    11    36   1
    36    14    37   1
    37    14    38   1
    38    18    39   1
    39    19    40   1
    40    22    41   1
    41    22    42   1
    42    23    43   1
    43    24    44   1
    44    24    45   1
    45    24    46   1
    46    25    47   1
    47    25    48   1
    48    25    49   1
@<TRIPOS>SUBSTRUCTURE
     1  MOL      2

