@<TRIPOS>MOLECULE
1a30_ligand_046
    49    48
SMALL
GAST_HUCK
****
This file was generated by PARSER (from files_GN.cpp)

@<TRIPOS>ATOM
      1 N          13.5344   25.1340    4.0510 N.4         1 MOL       0.2380
      2 CA         12.3939   24.4365    4.6701 C.3         1 MOL       0.0665
      3 C          11.2297   25.3162    4.6688 C.2         1 MOL       0.2269
      4 O          11.1909   26.2519    5.4604 O.2         1 MOL      -0.3907
      5 CB         12.8054   23.9189    6.0790 C.3         1 MOL       0.0194
      6 CG         11.7515   23.0938    6.8650 C.3         1 MOL       0.0075
      7 CD         11.0111   22.0955    6.0638 C.2         1 MOL       0.0351
      8 OE1        10.2439   22.4750    5.0157 O.co2       1 MOL      -0.5690
      9 OE2        11.0447   20.7790    6.3705 O.co2       1 MOL      -0.5690
     10 N          10.2082   25.0516    3.8559 N.am        1 MOL      -0.2595
     11 CA          8.9786   25.7835    3.6652 C.3         1 MOL       0.1424
     12 C           8.4953   26.3729    4.9082 C.2         1 MOL       0.2051
     13 O           8.3779   27.5888    4.9840 O.2         1 MOL      -0.3943
     14 CB          7.9437   24.7948    3.0337 C.3         1 MOL       0.0406
     15 CG          6.6466   25.3585    2.6058 C.2         1 MOL       0.0393
     16 OD1         5.7003   24.5292    2.1101 O.co2       1 MOL      -0.5688
     17 OD2         6.3758   26.6856    2.6509 O.co2       1 MOL      -0.5688
     18 N           8.2719   25.5970    5.9576 N.am        1 MOL      -0.2694
     19 CA          7.9682   25.9787    7.3091 C.3         1 MOL       0.0946
     20 C           6.6358   26.6297    7.3910 C.2         1 MOL       0.0601
     21 O           6.3228   27.6952    6.6130 O.co2       1 MOL      -0.5666
     22 CB          9.1250   26.8124    7.9541 C.3         1 MOL      -0.0156
     23 CG          9.1564   26.9600    9.5128 C.3         1 MOL      -0.0431
     24 CD1         8.0634   27.9177   10.0628 C.3         1 MOL      -0.0625
     25 CD2         9.1393   25.5941   10.2575 C.3         1 MOL      -0.0625
     26 OXT         5.6849   26.1431    8.2233 O.co2       1 MOL      -0.5666
     27 H1         14.2780   24.4605    3.8609 H           1 MOL       0.2015
     28 H2         13.9024   25.8654    4.6721 H           1 MOL       0.2015
     29 H3         13.2390   25.5622    3.1691 H           1 MOL       0.2015
     30 H4         12.2018   23.5652    4.0341 H           1 MOL       0.1099
     31 H5         13.0825   24.7764    6.6953 H           1 MOL       0.0363
     32 H6         13.7024   23.3046    5.9634 H           1 MOL       0.0363
     33 H7         11.0282   23.7641    7.3369 H           1 MOL       0.0434
     34 H8         12.2755   22.5663    7.6727 H           1 MOL       0.0434
     35 H9         10.3108   24.2609    3.3058 H           1 MOL       0.1886
     36 H10         9.1692   26.5682    2.9318 H           1 MOL       0.0819
     37 H11         7.7368   23.9885    3.7471 H           1 MOL       0.0478
     38 H12         8.3922   24.3369    2.1450 H           1 MOL       0.0478
     39 H13         8.3987   24.6410    5.8127 H           1 MOL       0.1875
     40 H14         7.9028   25.0291    7.8557 H           1 MOL       0.0726
     41 H15         9.1309   27.8174    7.5229 H           1 MOL       0.0308
     42 H16        10.0735   26.3477    7.6663 H           1 MOL       0.0308
     43 H17        10.1154   27.4309    9.7531 H           1 MOL       0.0297
     44 H18         8.2517   28.1504   11.1170 H           1 MOL       0.0232
     45 H19         7.0707   27.4720    9.9904 H           1 MOL       0.0232
     46 H20         8.0760   28.8577    9.5060 H           1 MOL       0.0232
     47 H21         9.9225   24.9430    9.8548 H           1 MOL       0.0232
     48 H22         8.1659   25.0997   10.1425 H           1 MOL       0.0232
     49 H23         9.3291   25.7442   11.3271 H           1 MOL       0.0232
@<TRIPOS>BOND
     1     3     2   1
     2     2     5   1
     3     2     1   1
     4     5     6   1
     5     6     7   1
     6     7     8  ar
     7     7     9  ar
     8     3     4   2
     9    12    11   1
    10    11    14   1
    11    11    10   1
    12    14    15   1
    13    15    16  ar
    14    15    17  ar
    15    12    13   2
    16    19    20   1
    17    19    22   1
    18    18    19   1
    19    22    23   1
    20    23    25   1
    21    23    24   1
    22    20    26  ar
    23    20    21  ar
    24    10     3  am
    25    12    18  am
    26     1    27   1
    27     1    28   1
    28     1    29   1
    29     2    30   1
    30     5    31   1
    31     5    32   1
    32     6    33   1
    33     6    34   1
    34    10    35   1
    35    11    36   1
    36    14    37   1
    37    14    38   1
    38    18    39   1
    39    19    40   1
    40    22    41   1
    41    22    42   1
    42    23    43   1
    43    24    44   1
    44    24    45   1
    45    24    46   1
    46    25    47   1
    47    25    48   1
    48    25    49   1
@<TRIPOS>SUBSTRUCTURE
     1  MOL      2

