@<TRIPOS>MOLECULE
1a30_ligand_018
    49    48
SMALL
GAST_HUCK
****
This file was generated by PARSER (from files_GN.cpp)

@<TRIPOS>ATOM
      1 N          13.3926   25.2826    4.3476 N.4         1 MOL       0.2380
      2 CA         12.7109   24.3007    5.2127 C.3         1 MOL       0.0665
      3 C          13.7311   23.4977    5.8943 C.2         1 MOL       0.2269
      4 O          14.4042   22.7061    5.2375 O.2         1 MOL      -0.3907
      5 CB         11.6868   23.4411    4.3978 C.3         1 MOL       0.0194
      6 CG         10.3361   23.2112    5.1168 C.3         1 MOL       0.0075
      7 CD         10.4616   22.5751    6.4424 C.2         1 MOL       0.0351
      8 OE1        10.7588   23.3262    7.5332 O.co2       1 MOL      -0.5690
      9 OE2        10.5994   21.2264    6.5363 O.co2       1 MOL      -0.5690
     10 N          13.9553   23.6444    7.2013 N.am        1 MOL      -0.2595
     11 CA         15.0187   23.0191    7.9403 C.3         1 MOL       0.1424
     12 C          15.1937   21.6281    7.5387 C.2         1 MOL       0.2051
     13 O          14.3625   20.8062    7.8916 O.2         1 MOL      -0.3943
     14 CB         14.8436   23.2132    9.4674 C.3         1 MOL       0.0406
     15 CG         14.0800   22.1570   10.1762 C.2         1 MOL       0.0393
     16 OD1        14.7279   21.2914   11.0061 O.co2       1 MOL      -0.5688
     17 OD2        12.7458   21.9951    9.9786 O.co2       1 MOL      -0.5688
     18 N          16.1931   21.2914    6.7247 N.am        1 MOL      -0.2694
     19 CA         16.3642   20.0479    6.0223 C.3         1 MOL       0.0946
     20 C          17.1177   19.1361    6.9191 C.2         1 MOL       0.0601
     21 O          18.3650   18.7017    6.6236 O.co2       1 MOL      -0.5666
     22 CB         17.0313   20.3801    4.6465 C.3         1 MOL      -0.0156
     23 CG         17.0199   19.3057    3.5161 C.3         1 MOL      -0.0431
     24 CD1        17.7711   17.9968    3.8743 C.3         1 MOL      -0.0625
     25 CD2        15.5843   18.9890    2.9916 C.3         1 MOL      -0.0625
     26 OXT        16.6357   18.8878    8.1613 O.co2       1 MOL      -0.5666
     27 H1         12.6923   25.8989    3.9377 H           1 MOL       0.2015
     28 H2         13.8957   24.7927    3.6031 H           1 MOL       0.2015
     29 H3         14.0531   25.8279    4.9006 H           1 MOL       0.2015
     30 H4         12.1719   24.9090    5.9603 H           1 MOL       0.1099
     31 H5         12.1190   22.4682    4.1286 H           1 MOL       0.0363
     32 H6         11.4550   23.9550    3.4674 H           1 MOL       0.0363
     33 H7          9.6976   22.5789    4.4984 H           1 MOL       0.0434
     34 H8          9.8205   24.1710    5.2383 H           1 MOL       0.0434
     35 H9         13.3903   24.2681    7.6935 H           1 MOL       0.1886
     36 H10        15.9193   23.5763    7.6957 H           1 MOL       0.0819
     37 H11        14.3344   24.1651    9.6514 H           1 MOL       0.0478
     38 H12        15.8388   23.2815    9.9271 H           1 MOL       0.0478
     39 H13        16.8121   22.0026    6.4760 H           1 MOL       0.1875
     40 H14        15.3993   19.5667    5.8191 H           1 MOL       0.0726
     41 H15        18.0671   20.6822    4.8266 H           1 MOL       0.0308
     42 H16        16.5264   21.2600    4.2336 H           1 MOL       0.0308
     43 H17        17.5545   19.7465    2.6707 H           1 MOL       0.0297
     44 H18        17.8357   17.3465    2.9959 H           1 MOL       0.0232
     45 H19        17.2524   17.4592    4.6759 H           1 MOL       0.0232
     46 H20        18.7891   18.2271    4.2036 H           1 MOL       0.0232
     47 H21        15.0705   19.9139    2.6980 H           1 MOL       0.0232
     48 H22        14.9872   18.4835    3.7663 H           1 MOL       0.0232
     49 H23        15.6394   18.3377    2.1062 H           1 MOL       0.0232
@<TRIPOS>BOND
     1     3     2   1
     2     2     5   1
     3     2     1   1
     4     5     6   1
     5     6     7   1
     6     7     8  ar
     7     7     9  ar
     8     3     4   2
     9    12    11   1
    10    11    14   1
    11    11    10   1
    12    14    15   1
    13    15    16  ar
    14    15    17  ar
    15    12    13   2
    16    19    20   1
    17    19    22   1
    18    18    19   1
    19    22    23   1
    20    23    25   1
    21    23    24   1
    22    20    26  ar
    23    20    21  ar
    24    10     3  am
    25    12    18  am
    26     1    27   1
    27     1    28   1
    28     1    29   1
    29     2    30   1
    30     5    31   1
    31     5    32   1
    32     6    33   1
    33     6    34   1
    34    10    35   1
    35    11    36   1
    36    14    37   1
    37    14    38   1
    38    18    39   1
    39    19    40   1
    40    22    41   1
    41    22    42   1
    42    23    43   1
    43    24    44   1
    44    24    45   1
    45    24    46   1
    46    25    47   1
    47    25    48   1
    48    25    49   1
@<TRIPOS>SUBSTRUCTURE
     1  MOL      2

