@<TRIPOS>MOLECULE
1a30_ligand_006
    49    48
SMALL
GAST_HUCK
****
This file was generated by PARSER (from files_GN.cpp)

@<TRIPOS>ATOM
      1 N          13.4379   25.2183    4.3975 N.4         1 MOL       0.2380
      2 CA         12.6230   24.3405    5.2546 C.3         1 MOL       0.0665
      3 C          13.4677   23.2814    5.8072 C.2         1 MOL       0.2269
      4 O          13.5939   23.2125    7.0179 O.2         1 MOL      -0.3907
      5 CB         11.3931   23.7915    4.4548 C.3         1 MOL       0.0194
      6 CG         10.1854   23.2629    5.2903 C.3         1 MOL       0.0075
      7 CD         10.5294   22.5071    6.5065 C.2         1 MOL       0.0351
      8 OE1        10.9748   23.1806    7.5949 O.co2       1 MOL      -0.5690
      9 OE2        10.7641   21.1766    6.4500 O.co2       1 MOL      -0.5690
     10 N          14.0238   22.3969    4.9796 N.am        1 MOL      -0.2595
     11 CA         14.6971   21.1464    5.2358 C.3         1 MOL       0.1424
     12 C          15.2447   20.9500    6.5751 C.2         1 MOL       0.2051
     13 O          14.5727   20.3114    7.3923 O.2         1 MOL      -0.3943
     14 CB         15.7605   20.9455    4.1084 C.3         1 MOL       0.0406
     15 CG         16.4813   19.6553    4.1660 C.2         1 MOL       0.0393
     16 OD1        15.7977   18.4885    4.0699 O.co2       1 MOL      -0.5688
     17 OD2        17.8315   19.6323    4.1746 O.co2       1 MOL      -0.5688
     18 N          16.4001   21.4887    6.9543 N.am        1 MOL      -0.2694
     19 CA         16.9675   21.4311    8.2788 C.3         1 MOL       0.0946
     20 C          16.0636   22.1539    9.2051 C.2         1 MOL       0.0601
     21 O          15.1243   21.4808    9.9191 O.co2       1 MOL      -0.5666
     22 CB         18.4193   22.0218    8.3355 C.3         1 MOL      -0.0156
     23 CG         19.6164   21.0174    8.3407 C.3         1 MOL      -0.0431
     24 CD1        19.6622   20.1307    9.6174 C.3         1 MOL      -0.0625
     25 CD2        19.7086   20.1492    7.0551 C.3         1 MOL      -0.0625
     26 OXT        16.0984   23.5058    9.2758 O.co2       1 MOL      -0.5666
     27 H1         12.8329   25.9261    3.9788 H           1 MOL       0.2015
     28 H2         13.8805   24.6783    3.6523 H           1 MOL       0.2015
     29 H3         14.1532   25.6920    4.9526 H           1 MOL       0.2015
     30 H4         12.2407   24.9772    6.0604 H           1 MOL       0.1099
     31 H5         11.7093   23.0038    3.7665 H           1 MOL       0.0363
     32 H6         10.9958   24.5993    3.8283 H           1 MOL       0.0363
     33 H7          9.5766   22.6149    4.6529 H           1 MOL       0.0434
     34 H8          9.5567   24.1129    5.5748 H           1 MOL       0.0434
     35 H9         13.8277   22.5493    4.0476 H           1 MOL       0.1886
     36 H10        13.9264   20.3873    5.0555 H           1 MOL       0.0819
     37 H11        16.4804   21.7686    4.1491 H           1 MOL       0.0478
     38 H12        15.2605   20.9923    3.1353 H           1 MOL       0.0478
     39 H13        16.8852   21.9867    6.2795 H           1 MOL       0.1875
     40 H14        17.0158   20.3833    8.5922 H           1 MOL       0.0726
     41 H15        18.5344   22.6408    9.2319 H           1 MOL       0.0308
     42 H16        18.5598   22.7025    7.4918 H           1 MOL       0.0308
     43 H17        20.5351   21.6206    8.3633 H           1 MOL       0.0297
     44 H18        20.6074   19.5852    9.6655 H           1 MOL       0.0232
     45 H19        18.8500   19.4080    9.6227 H           1 MOL       0.0232
     46 H20        19.5866   20.7494   10.5133 H           1 MOL       0.0232
     47 H21        19.7319   20.7869    6.1684 H           1 MOL       0.0232
     48 H22        18.8555   19.4713    6.9783 H           1 MOL       0.0232
     49 H23        20.6255   19.5516    7.0650 H           1 MOL       0.0232
@<TRIPOS>BOND
     1     3     2   1
     2     2     5   1
     3     2     1   1
     4     5     6   1
     5     6     7   1
     6     7     8  ar
     7     7     9  ar
     8     3     4   2
     9    12    11   1
    10    11    14   1
    11    11    10   1
    12    14    15   1
    13    15    16  ar
    14    15    17  ar
    15    12    13   2
    16    19    20   1
    17    19    22   1
    18    18    19   1
    19    22    23   1
    20    23    25   1
    21    23    24   1
    22    20    26  ar
    23    20    21  ar
    24    10     3  am
    25    12    18  am
    26     1    27   1
    27     1    28   1
    28     1    29   1
    29     2    30   1
    30     5    31   1
    31     5    32   1
    32     6    33   1
    33     6    34   1
    34    10    35   1
    35    11    36   1
    36    14    37   1
    37    14    38   1
    38    18    39   1
    39    19    40   1
    40    22    41   1
    41    22    42   1
    42    23    43   1
    43    24    44   1
    44    24    45   1
    45    24    46   1
    46    25    47   1
    47    25    48   1
    48    25    49   1
@<TRIPOS>SUBSTRUCTURE
     1  MOL      2

