@<TRIPOS>MOLECULE
1a30_ligand_052
    49    48
SMALL
GAST_HUCK
****
This file was generated by PARSER (from files_GN.cpp)

@<TRIPOS>ATOM
      1 N           8.4885   24.2000    5.1161 N.4         1 MOL       0.2380
      2 CA          9.4364   25.3203    5.2269 C.3         1 MOL       0.0665
      3 C           8.8589   26.4674    4.5246 C.2         1 MOL       0.2269
      4 O           8.6277   27.4986    5.1452 O.2         1 MOL      -0.3907
      5 CB         10.8521   24.9027    4.7106 C.3         1 MOL       0.0194
      6 CG         11.5551   23.7553    5.4977 C.3         1 MOL       0.0075
      7 CD         10.8889   22.4392    5.4200 C.2         1 MOL       0.0351
      8 OE1        10.3338   22.0135    4.2653 O.co2       1 MOL      -0.5690
      9 OE2        10.9248   21.5711    6.4561 O.co2       1 MOL      -0.5690
     10 N           8.5437   26.3673    3.2371 N.am        1 MOL      -0.2595
     11 CA          7.8271   27.3022    2.4000 C.3         1 MOL       0.1424
     12 C           6.9636   26.5107    1.5196 C.2         1 MOL       0.2051
     13 O           7.4964   25.7130    0.7573 O.2         1 MOL      -0.3943
     14 CB          8.8019   28.1886    1.5515 C.3         1 MOL       0.0406
     15 CG          9.2240   29.4590    2.1733 C.2         1 MOL       0.0393
     16 OD1         9.6958   30.4610    1.3978 O.co2       1 MOL      -0.5688
     17 OD2         9.5681   29.5012    3.4777 O.co2       1 MOL      -0.5688
     18 N           5.6480   26.7234    1.4693 N.am        1 MOL      -0.2694
     19 CA          4.7116   26.0741    0.5878 C.3         1 MOL       0.0946
     20 C           4.5205   26.8835   -0.6378 C.2         1 MOL       0.0601
     21 O           5.5532   27.6085   -1.1231 O.co2       1 MOL      -0.5666
     22 CB          3.3792   25.7142    1.3244 C.3         1 MOL      -0.0156
     23 CG          2.3757   26.8841    1.6410 C.3         1 MOL      -0.0431
     24 CD1         0.9094   26.4969    1.2941 C.3         1 MOL      -0.0625
     25 CD2         2.4570   27.3693    3.1154 C.3         1 MOL      -0.0625
     26 OXT         3.5968   26.5008   -1.5463 O.co2       1 MOL      -0.5666
     27 H1          8.8050   23.4296    5.7036 H           1 MOL       0.2015
     28 H2          8.4354   23.8855    4.1440 H           1 MOL       0.2015
     29 H3          7.5622   24.4793    5.4324 H           1 MOL       0.2015
     30 H4          9.5286   25.5564    6.2910 H           1 MOL       0.1099
     31 H5         11.5055   25.7767    4.7702 H           1 MOL       0.0363
     32 H6         10.7909   24.6177    3.6558 H           1 MOL       0.0363
     33 H7         11.6602   24.0515    6.5440 H           1 MOL       0.0434
     34 H8         12.5620   23.6288    5.0929 H           1 MOL       0.0434
     35 H9          8.7903   25.5303    2.8092 H           1 MOL       0.1886
     36 H10         7.2008   27.9643    3.0111 H           1 MOL       0.0819
     37 H11         8.3187   28.4618    0.6055 H           1 MOL       0.0478
     38 H12         9.6996   27.6184    1.3093 H           1 MOL       0.0478
     39 H13         5.3033   27.4412    2.0218 H           1 MOL       0.1875
     40 H14         5.1283   25.1200    0.2495 H           1 MOL       0.0726
     41 H15         3.6242   25.1847    2.2478 H           1 MOL       0.0308
     42 H16         2.8737   24.9779    0.6905 H           1 MOL       0.0308
     43 H17         2.6177   27.7415    1.0092 H           1 MOL       0.0297
     44 H18         0.2327   27.3292    1.4892 H           1 MOL       0.0232
     45 H19         0.5866   25.6354    1.8857 H           1 MOL       0.0232
     46 H20         0.8270   26.2399    0.2344 H           1 MOL       0.0232
     47 H21         3.4691   27.6886    3.3623 H           1 MOL       0.0232
     48 H22         2.1653   26.5707    3.8009 H           1 MOL       0.0232
     49 H23         1.7887   28.2193    3.2707 H           1 MOL       0.0232
@<TRIPOS>BOND
     1     3     2   1
     2     2     5   1
     3     2     1   1
     4     5     6   1
     5     6     7   1
     6     7     8  ar
     7     7     9  ar
     8     3     4   2
     9    12    11   1
    10    11    14   1
    11    11    10   1
    12    14    15   1
    13    15    16  ar
    14    15    17  ar
    15    12    13   2
    16    19    20   1
    17    19    22   1
    18    18    19   1
    19    22    23   1
    20    23    25   1
    21    23    24   1
    22    20    26  ar
    23    20    21  ar
    24    10     3  am
    25    12    18  am
    26     1    27   1
    27     1    28   1
    28     1    29   1
    29     2    30   1
    30     5    31   1
    31     5    32   1
    32     6    33   1
    33     6    34   1
    34    10    35   1
    35    11    36   1
    36    14    37   1
    37    14    38   1
    38    18    39   1
    39    19    40   1
    40    22    41   1
    41    22    42   1
    42    23    43   1
    43    24    44   1
    44    24    45   1
    45    24    46   1
    46    25    47   1
    47    25    48   1
    48    25    49   1
@<TRIPOS>SUBSTRUCTURE
     1  MOL      2

