@<TRIPOS>MOLECULE
1a30_ligand_082
    49    48
SMALL
GAST_HUCK
****
This file was generated by PARSER (from files_GN.cpp)

@<TRIPOS>ATOM
      1 N          14.2131   17.8233    1.8625 N.4         1 MOL       0.2380
      2 CA         14.3946   17.9730    3.3175 C.3         1 MOL       0.0665
      3 C          14.3978   19.3811    3.6994 C.2         1 MOL       0.2269
      4 O          14.9355   20.2026    2.9616 O.2         1 MOL      -0.3907
      5 CB         15.6082   17.1257    3.8287 C.3         1 MOL       0.0194
      6 CG         16.8821   17.8582    4.3525 C.3         1 MOL       0.0075
      7 CD         17.7832   18.3297    3.2928 C.2         1 MOL       0.0351
      8 OE1        19.0118   17.7765    3.1412 O.co2       1 MOL      -0.5690
      9 OE2        17.5673   19.5044    2.6702 O.co2       1 MOL      -0.5690
     10 N          13.8040   19.7682    4.8235 N.am        1 MOL      -0.2595
     11 CA         13.5671   21.1249    5.2511 C.3         1 MOL       0.1424
     12 C          14.3528   21.3672    6.4523 C.2         1 MOL       0.2051
     13 O          15.3776   22.0401    6.3820 O.2         1 MOL      -0.3943
     14 CB         12.0252   21.2878    5.4163 C.3         1 MOL       0.0406
     15 CG         11.6346   22.4210    6.2670 C.2         1 MOL       0.0393
     16 OD1        11.0714   22.1757    7.4854 O.co2       1 MOL      -0.5688
     17 OD2        11.8293   23.7089    5.8792 O.co2       1 MOL      -0.5688
     18 N          13.9422   20.8934    7.6156 N.am        1 MOL      -0.2694
     19 CA         14.5468   21.0250    8.9124 C.3         1 MOL       0.0946
     20 C          14.5443   22.4477    9.3440 C.2         1 MOL       0.0601
     21 O          15.6774   23.1778    9.5139 O.co2       1 MOL      -0.5666
     22 CB         15.9380   20.3090    8.9763 C.3         1 MOL      -0.0156
     23 CG         16.2257   19.5506   10.3137 C.3         1 MOL      -0.0431
     24 CD1        15.5287   18.1567   10.3597 C.3         1 MOL      -0.0625
     25 CD2        17.7543   19.3651   10.5521 C.3         1 MOL      -0.0625
     26 OXT        13.3627   23.1074    9.4881 O.co2       1 MOL      -0.5666
     27 H1         14.1055   16.8266    1.6354 H           1 MOL       0.2015
     28 H2         15.0255   18.2070    1.3641 H           1 MOL       0.2015
     29 H3         13.3654   18.3259    1.5829 H           1 MOL       0.2015
     30 H4         13.4902   17.5101    3.7383 H           1 MOL       0.1099
     31 H5         15.9236   16.4354    3.0281 H           1 MOL       0.0363
     32 H6         15.2510   16.4840    4.6485 H           1 MOL       0.0363
     33 H7         17.4277   17.1541    4.9855 H           1 MOL       0.0434
     34 H8         16.5984   18.6953    4.9891 H           1 MOL       0.0434
     35 H9         13.4198   19.0586    5.3709 H           1 MOL       0.1886
     36 H10        13.8855   21.8334    4.4761 H           1 MOL       0.0819
     37 H11        11.6094   20.3652    5.8257 H           1 MOL       0.0478
     38 H12        11.5889   21.4502    4.4211 H           1 MOL       0.0478
     39 H13        13.1069   20.3990    7.5994 H           1 MOL       0.1875
     40 H14        13.8692   20.5128    9.5978 H           1 MOL       0.0726
     41 H15        16.7257   21.0504    8.8004 H           1 MOL       0.0308
     42 H16        16.0122   19.5920    8.1642 H           1 MOL       0.0308
     43 H17        15.8423   20.1424   11.1500 H           1 MOL       0.0297
     44 H18        15.6844   17.6762   11.3305 H           1 MOL       0.0232
     45 H19        15.9258   17.4981    9.5836 H           1 MOL       0.0232
     46 H20        14.4513   18.2536   10.2073 H           1 MOL       0.0232
     47 H21        18.2410   20.3414   10.6445 H           1 MOL       0.0232
     48 H22        18.2135   18.8223    9.7206 H           1 MOL       0.0232
     49 H23        17.9375   18.8084   11.4798 H           1 MOL       0.0232
@<TRIPOS>BOND
     1     3     2   1
     2     2     5   1
     3     2     1   1
     4     5     6   1
     5     6     7   1
     6     7     8  ar
     7     7     9  ar
     8     3     4   2
     9    12    11   1
    10    11    14   1
    11    11    10   1
    12    14    15   1
    13    15    16  ar
    14    15    17  ar
    15    12    13   2
    16    19    20   1
    17    19    22   1
    18    18    19   1
    19    22    23   1
    20    23    25   1
    21    23    24   1
    22    20    26  ar
    23    20    21  ar
    24    10     3  am
    25    12    18  am
    26     1    27   1
    27     1    28   1
    28     1    29   1
    29     2    30   1
    30     5    31   1
    31     5    32   1
    32     6    33   1
    33     6    34   1
    34    10    35   1
    35    11    36   1
    36    14    37   1
    37    14    38   1
    38    18    39   1
    39    19    40   1
    40    22    41   1
    41    22    42   1
    42    23    43   1
    43    24    44   1
    44    24    45   1
    45    24    46   1
    46    25    47   1
    47    25    48   1
    48    25    49   1
@<TRIPOS>SUBSTRUCTURE
     1  MOL      2

