@<TRIPOS>MOLECULE
1a30_ligand_060
    49    48
SMALL
GAST_HUCK
****
This file was generated by PARSER (from files_GN.cpp)

@<TRIPOS>ATOM
      1 N          13.7732   24.9250    4.6203 N.4         1 MOL       0.2380
      2 CA         14.3459   24.1258    5.7222 C.3         1 MOL       0.0665
      3 C          14.8123   22.8179    5.2913 C.2         1 MOL       0.2269
      4 O          14.1390   22.1556    4.4991 O.2         1 MOL      -0.3907
      5 CB         13.3814   24.0826    6.9638 C.3         1 MOL       0.0194
      6 CG         12.5716   22.7841    7.2489 C.3         1 MOL       0.0075
      7 CD         11.6850   22.2765    6.1884 C.2         1 MOL       0.0351
      8 OE1        11.3744   23.0103    5.0902 O.co2       1 MOL      -0.5690
      9 OE2        11.0041   21.1229    6.3930 O.co2       1 MOL      -0.5690
     10 N          15.9007   22.2983    5.8430 N.am        1 MOL      -0.2595
     11 CA         16.4947   21.0218    5.5467 C.3         1 MOL       0.1424
     12 C          15.4760   20.0146    5.2573 C.2         1 MOL       0.2051
     13 O          14.5401   19.8561    6.0328 O.2         1 MOL      -0.3943
     14 CB         17.4226   20.5951    6.7237 C.3         1 MOL       0.0406
     15 CG         18.3215   19.4785    6.3729 C.2         1 MOL       0.0393
     16 OD1        19.0089   19.5088    5.2052 O.co2       1 MOL      -0.5688
     17 OD2        18.7087   18.5835    7.3263 O.co2       1 MOL      -0.5688
     18 N          15.5483   19.3585    4.1015 N.am        1 MOL      -0.2694
     19 CA         14.5914   18.4884    3.4726 C.3         1 MOL       0.0946
     20 C          13.8662   17.5576    4.3797 C.2         1 MOL       0.0601
     21 O          13.0977   18.0814    5.3595 O.co2       1 MOL      -0.5666
     22 CB         15.2881   17.7859    2.2550 C.3         1 MOL      -0.0156
     23 CG         16.5005   16.8166    2.5190 C.3         1 MOL      -0.0431
     24 CD1        16.9963   16.2003    1.1849 C.3         1 MOL      -0.0625
     25 CD2        17.6913   17.4553    3.2877 C.3         1 MOL      -0.0625
     26 OXT        13.5845   16.2680    4.0703 O.co2       1 MOL      -0.5666
     27 H1         13.6886   25.8995    4.9174 H           1 MOL       0.2015
     28 H2         12.8534   24.5637    4.3580 H           1 MOL       0.2015
     29 H3         14.3936   24.8874    3.8052 H           1 MOL       0.2015
     30 H4         15.2389   24.6766    6.0125 H           1 MOL       0.1099
     31 H5         12.6825   24.9236    6.9012 H           1 MOL       0.0363
     32 H6         13.9919   24.2613    7.8555 H           1 MOL       0.0363
     33 H7         11.9467   22.9558    8.1313 H           1 MOL       0.0434
     34 H8         13.2696   21.9889    7.5124 H           1 MOL       0.0434
     35 H9         16.3732   22.8643    6.4856 H           1 MOL       0.1886
     36 H10        17.1194   21.1813    4.6655 H           1 MOL       0.0819
     37 H11        16.8189   20.3255    7.6046 H           1 MOL       0.0478
     38 H12        18.0552   21.4393    7.0020 H           1 MOL       0.0478
     39 H13        16.3344   19.5601    3.5624 H           1 MOL       0.1875
     40 H14        13.8241   19.1435    3.0393 H           1 MOL       0.0726
     41 H15        15.6267   18.5636    1.5570 H           1 MOL       0.0308
     42 H16        14.5185   17.2128    1.7257 H           1 MOL       0.0308
     43 H17        16.1586   15.9802    3.1282 H           1 MOL       0.0297
     44 H18        17.8004   15.4849    1.3677 H           1 MOL       0.0232
     45 H19        17.3621   16.9795    0.5094 H           1 MOL       0.0232
     46 H20        16.1873   15.6603    0.6923 H           1 MOL       0.0232
     47 H21        17.3965   17.7024    4.3042 H           1 MOL       0.0232
     48 H22        18.0395   18.3583    2.7838 H           1 MOL       0.0232
     49 H23        18.5249   16.7548    3.3609 H           1 MOL       0.0232
@<TRIPOS>BOND
     1     3     2   1
     2     2     5   1
     3     2     1   1
     4     5     6   1
     5     6     7   1
     6     7     8  ar
     7     7     9  ar
     8     3     4   2
     9    12    11   1
    10    11    14   1
    11    11    10   1
    12    14    15   1
    13    15    16  ar
    14    15    17  ar
    15    12    13   2
    16    19    20   1
    17    19    22   1
    18    18    19   1
    19    22    23   1
    20    23    25   1
    21    23    24   1
    22    20    26  ar
    23    20    21  ar
    24    10     3  am
    25    12    18  am
    26     1    27   1
    27     1    28   1
    28     1    29   1
    29     2    30   1
    30     5    31   1
    31     5    32   1
    32     6    33   1
    33     6    34   1
    34    10    35   1
    35    11    36   1
    36    14    37   1
    37    14    38   1
    38    18    39   1
    39    19    40   1
    40    22    41   1
    41    22    42   1
    42    23    43   1
    43    24    44   1
    44    24    45   1
    45    24    46   1
    46    25    47   1
    47    25    48   1
    48    25    49   1
@<TRIPOS>SUBSTRUCTURE
     1  MOL      2

