@<TRIPOS>MOLECULE
1a30_ligand_059
    49    48
SMALL
GAST_HUCK
****
This file was generated by PARSER (from files_GN.cpp)

@<TRIPOS>ATOM
      1 N           5.9752   23.6918    3.5605 N.4         1 MOL       0.2380
      2 CA          4.5297   23.9801    3.5150 C.3         1 MOL       0.0665
      3 C           4.3259   25.3543    3.9552 C.2         1 MOL       0.2269
      4 O           3.8426   26.1733    3.1826 O.2         1 MOL      -0.3907
      5 CB          3.6900   22.9695    4.3587 C.3         1 MOL       0.0194
      6 CG          3.9864   21.4775    4.0535 C.3         1 MOL       0.0075
      7 CD          3.2379   20.5650    4.9363 C.2         1 MOL       0.0351
      8 OE1         2.2377   19.7927    4.4497 O.co2       1 MOL      -0.5690
      9 OE2         3.6270   20.3854    6.2229 O.co2       1 MOL      -0.5690
     10 N           4.6857   25.6925    5.1863 N.am        1 MOL      -0.2595
     11 CA          4.5838   26.9685    5.8367 C.3         1 MOL       0.1424
     12 C           5.2973   26.8651    7.1080 C.2         1 MOL       0.2051
     13 O           4.7160   27.0482    8.1706 O.2         1 MOL      -0.3943
     14 CB          3.1060   27.4856    5.9253 C.3         1 MOL       0.0406
     15 CG          2.1021   26.5335    6.4402 C.2         1 MOL       0.0393
     16 OD1         2.4541   25.4654    7.1897 O.co2       1 MOL      -0.5688
     17 OD2         0.7995   26.6894    6.1119 O.co2       1 MOL      -0.5688
     18 N           6.6002   26.6003    7.0863 N.am        1 MOL      -0.2694
     19 CA          7.4999   26.5345    8.2057 C.3         1 MOL       0.0946
     20 C           8.2718   27.7935    8.3098 C.2         1 MOL       0.0601
     21 O           8.4717   28.5643    7.2142 O.co2       1 MOL      -0.5666
     22 CB          8.4062   25.2671    8.1402 C.3         1 MOL      -0.0156
     23 CG          9.2896   25.0124    6.8662 C.3         1 MOL      -0.0431
     24 CD1        10.4743   26.0105    6.7138 C.3         1 MOL      -0.0625
     25 CD2         9.8405   23.5574    6.8601 C.3         1 MOL      -0.0625
     26 OXT         8.4516   28.3756    9.5195 O.co2       1 MOL      -0.5666
     27 H1          6.1610   22.7928    3.1119 H           1 MOL       0.2015
     28 H2          6.2936   23.6603    4.5309 H           1 MOL       0.2015
     29 H3          6.4854   24.4238    3.0606 H           1 MOL       0.2015
     30 H4          4.2212   23.8740    2.4707 H           1 MOL       0.1099
     31 H5          2.6281   23.1541    4.1669 H           1 MOL       0.0363
     32 H6          3.8660   23.1413    5.4252 H           1 MOL       0.0363
     33 H7          5.0499   21.2700    4.1966 H           1 MOL       0.0434
     34 H8          3.7319   21.2663    3.0131 H           1 MOL       0.0434
     35 H9          5.0882   24.9883    5.7165 H           1 MOL       0.1886
     36 H10         5.1255   27.7032    5.2312 H           1 MOL       0.0819
     37 H11         2.7924   27.7891    4.9197 H           1 MOL       0.0478
     38 H12         3.0742   28.3887    6.5444 H           1 MOL       0.0478
     39 H13         7.0076   26.5217    6.2093 H           1 MOL       0.1875
     40 H14         6.9294   26.4555    9.1378 H           1 MOL       0.0726
     41 H15         7.7181   24.4244    8.2397 H           1 MOL       0.0308
     42 H16         9.0505   25.2468    9.0267 H           1 MOL       0.0308
     43 H17         8.6649   25.1218    5.9760 H           1 MOL       0.0297
     44 H18        11.0936   25.7395    5.8509 H           1 MOL       0.0232
     45 H19        11.1105   26.0020    7.6045 H           1 MOL       0.0232
     46 H20        10.1019   27.0247    6.5523 H           1 MOL       0.0232
     47 H21         9.0168   22.8427    6.9007 H           1 MOL       0.0232
     48 H22        10.4950   23.3861    7.7200 H           1 MOL       0.0232
     49 H23        10.4080   23.3572    5.9467 H           1 MOL       0.0232
@<TRIPOS>BOND
     1     3     2   1
     2     2     5   1
     3     2     1   1
     4     5     6   1
     5     6     7   1
     6     7     8  ar
     7     7     9  ar
     8     3     4   2
     9    12    11   1
    10    11    14   1
    11    11    10   1
    12    14    15   1
    13    15    16  ar
    14    15    17  ar
    15    12    13   2
    16    19    20   1
    17    19    22   1
    18    18    19   1
    19    22    23   1
    20    23    25   1
    21    23    24   1
    22    20    26  ar
    23    20    21  ar
    24    10     3  am
    25    12    18  am
    26     1    27   1
    27     1    28   1
    28     1    29   1
    29     2    30   1
    30     5    31   1
    31     5    32   1
    32     6    33   1
    33     6    34   1
    34    10    35   1
    35    11    36   1
    36    14    37   1
    37    14    38   1
    38    18    39   1
    39    19    40   1
    40    22    41   1
    41    22    42   1
    42    23    43   1
    43    24    44   1
    44    24    45   1
    45    24    46   1
    46    25    47   1
    47    25    48   1
    48    25    49   1
@<TRIPOS>SUBSTRUCTURE
     1  MOL      2

