@<TRIPOS>MOLECULE
1a30_ligand_044
    49    48
SMALL
GAST_HUCK
****
This file was generated by PARSER (from files_GN.cpp)

@<TRIPOS>ATOM
      1 N          13.8143   24.9011    4.5718 N.4         1 MOL       0.2380
      2 CA         13.8145   23.4496    4.8105 C.3         1 MOL       0.0665
      3 C          12.9739   23.1263    5.9533 C.2         1 MOL       0.2269
      4 O          12.2516   22.1370    5.8951 O.2         1 MOL      -0.3907
      5 CB         15.2754   22.9338    4.9753 C.3         1 MOL       0.0194
      6 CG         15.4545   21.4280    4.6174 C.3         1 MOL       0.0075
      7 CD         16.6046   20.8055    5.3012 C.2         1 MOL       0.0351
      8 OE1        17.7238   20.4357    4.6190 O.co2       1 MOL      -0.5690
      9 OE2        16.4871   20.4181    6.5991 O.co2       1 MOL      -0.5690
     10 N          12.9712   23.9161    7.0255 N.am        1 MOL      -0.2595
     11 CA         12.2251   23.7128    8.2377 C.3         1 MOL       0.1424
     12 C          11.1495   24.7017    8.2949 C.2         1 MOL       0.2051
     13 O          10.8383   25.2348    9.3618 O.2         1 MOL      -0.3943
     14 CB         13.2404   23.7505    9.4221 C.3         1 MOL       0.0406
     15 CG         13.7603   22.4369    9.8568 C.2         1 MOL       0.0393
     16 OD1        14.5523   22.3698   10.9440 O.co2       1 MOL      -0.5688
     17 OD2        13.4882   21.2854    9.2009 O.co2       1 MOL      -0.5688
     18 N          10.4078   24.8959    7.2107 N.am        1 MOL      -0.2694
     19 CA          9.2401   25.7239    7.0822 C.3         1 MOL       0.0946
     20 C           8.2846   25.4163    8.1685 C.2         1 MOL       0.0601
     21 O           7.7856   26.3995    8.9585 O.co2       1 MOL      -0.5666
     22 CB          8.6225   25.4931    5.6674 C.3         1 MOL      -0.0156
     23 CG          7.1971   26.0886    5.4021 C.3         1 MOL      -0.0431
     24 CD1         7.1980   27.6387    5.2967 C.3         1 MOL      -0.0625
     25 CD2         6.5742   25.4619    4.1270 C.3         1 MOL      -0.0625
     26 OXT         7.8951   24.1414    8.4104 O.co2       1 MOL      -0.5666
     27 H1         14.2599   25.0713    3.6751 H           1 MOL       0.2015
     28 H2         14.3379   25.3915    5.2999 H           1 MOL       0.2015
     29 H3         12.8552   25.2516    4.5422 H           1 MOL       0.2015
     30 H4         13.3914   22.9950    3.9060 H           1 MOL       0.1099
     31 H5         15.6116   23.1214    6.0034 H           1 MOL       0.0363
     32 H6         15.9222   23.5032    4.3018 H           1 MOL       0.0363
     33 H7         15.5915   21.3439    3.5347 H           1 MOL       0.0434
     34 H8         14.5571   20.8580    4.8852 H           1 MOL       0.0434
     35 H9         13.5087   24.7266    6.9786 H           1 MOL       0.1886
     36 H10        11.7386   22.7257    8.2516 H           1 MOL       0.0819
     37 H11        12.7706   24.2123   10.2922 H           1 MOL       0.0478
     38 H12        14.0954   24.3737    9.1375 H           1 MOL       0.0478
     39 H13        10.6879   24.4189    6.4136 H           1 MOL       0.1875
     40 H14         9.5533   26.7713    7.1534 H           1 MOL       0.0726
     41 H15         8.5788   24.4115    5.4834 H           1 MOL       0.0308
     42 H16         9.3177   25.9088    4.9237 H           1 MOL       0.0308
     43 H17         6.5330   25.8208    6.2274 H           1 MOL       0.0297
     44 H18         6.1847   28.0014    5.0952 H           1 MOL       0.0232
     45 H19         7.8518   27.9674    4.4832 H           1 MOL       0.0232
     46 H20         7.5336   28.0916    6.2304 H           1 MOL       0.0232
     47 H21         6.5431   24.3710    4.2196 H           1 MOL       0.0232
     48 H22         7.1615   25.7259    3.2383 H           1 MOL       0.0232
     49 H23         5.5454   25.8153    3.9866 H           1 MOL       0.0232
@<TRIPOS>BOND
     1     3     2   1
     2     2     5   1
     3     2     1   1
     4     5     6   1
     5     6     7   1
     6     7     8  ar
     7     7     9  ar
     8     3     4   2
     9    12    11   1
    10    11    14   1
    11    11    10   1
    12    14    15   1
    13    15    16  ar
    14    15    17  ar
    15    12    13   2
    16    19    20   1
    17    19    22   1
    18    18    19   1
    19    22    23   1
    20    23    25   1
    21    23    24   1
    22    20    26  ar
    23    20    21  ar
    24    10     3  am
    25    12    18  am
    26     1    27   1
    27     1    28   1
    28     1    29   1
    29     2    30   1
    30     5    31   1
    31     5    32   1
    32     6    33   1
    33     6    34   1
    34    10    35   1
    35    11    36   1
    36    14    37   1
    37    14    38   1
    38    18    39   1
    39    19    40   1
    40    22    41   1
    41    22    42   1
    42    23    43   1
    43    24    44   1
    44    24    45   1
    45    24    46   1
    46    25    47   1
    47    25    48   1
    48    25    49   1
@<TRIPOS>SUBSTRUCTURE
     1  MOL      2

