@<TRIPOS>MOLECULE
1a30_ligand_075
    49    48
SMALL
GAST_HUCK
****
This file was generated by PARSER (from files_GN.cpp)

@<TRIPOS>ATOM
      1 N          16.6966   19.5720    1.6126 N.4         1 MOL       0.2380
      2 CA         15.9416   18.4692    2.2356 C.3         1 MOL       0.0665
      3 C          15.2619   18.8705    3.4712 C.2         1 MOL       0.2269
      4 O          14.3103   18.2016    3.8576 O.2         1 MOL      -0.3907
      5 CB         16.8656   17.2206    2.3870 C.3         1 MOL       0.0194
      6 CG         17.6272   17.0757    3.7446 C.3         1 MOL       0.0075
      7 CD         16.9728   16.2286    4.7609 C.2         1 MOL       0.0351
      8 OE1        17.7245   15.4779    5.6058 O.co2       1 MOL      -0.5690
      9 OE2        15.6269   16.0865    4.8510 O.co2       1 MOL      -0.5690
     10 N          15.6801   19.9358    4.1547 N.am        1 MOL      -0.2595
     11 CA         15.3002   20.5203    5.4145 C.3         1 MOL       0.1424
     12 C          16.4813   20.4676    6.2848 C.2         1 MOL       0.2051
     13 O          17.5907   20.5941    5.7645 O.2         1 MOL      -0.3943
     14 CB         13.9679   20.0524    6.0833 C.3         1 MOL       0.0406
     15 CG         12.7236   20.4037    5.3763 C.2         1 MOL       0.0393
     16 OD1        12.6961   20.6841    4.0497 O.co2       1 MOL      -0.5688
     17 OD2        11.5499   20.4644    6.0579 O.co2       1 MOL      -0.5688
     18 N          16.4324   20.2432    7.6027 N.am        1 MOL      -0.2694
     19 CA         17.5457   20.2922    8.5111 C.3         1 MOL       0.0946
     20 C          18.7429   19.5566    8.0498 C.2         1 MOL       0.0601
     21 O          18.6705   18.5643    7.1278 O.co2       1 MOL      -0.5666
     22 CB         17.1180   19.9067    9.9673 C.3         1 MOL      -0.0156
     23 CG         16.4924   18.5092   10.3076 C.3         1 MOL      -0.0431
     24 CD1        14.9432   18.4620   10.1979 C.3         1 MOL      -0.0625
     25 CD2        17.1284   17.3196    9.5327 C.3         1 MOL      -0.0625
     26 OXT        19.9822   19.9802    8.4022 O.co2       1 MOL      -0.5666
     27 H1         17.0638   19.2908    0.7003 H           1 MOL       0.2015
     28 H2         17.4723   19.8488    2.2174 H           1 MOL       0.2015
     29 H3         16.0681   20.3645    1.4794 H           1 MOL       0.2015
     30 H4         15.1605   18.2139    1.5154 H           1 MOL       0.1099
     31 H5         17.6144   17.2571    1.5862 H           1 MOL       0.0363
     32 H6         16.2858   16.3125    2.1951 H           1 MOL       0.0363
     33 H7         17.8151   18.0640    4.1748 H           1 MOL       0.0434
     34 H8         18.6046   16.6238    3.5462 H           1 MOL       0.0434
     35 H9         16.4243   20.4020    3.7474 H           1 MOL       0.1886
     36 H10        15.1528   21.5849    5.2015 H           1 MOL       0.0819
     37 H11        13.8940   20.5043    7.0850 H           1 MOL       0.0478
     38 H12        13.9898   18.9711    6.2173 H           1 MOL       0.0478
     39 H13        15.5582   20.1121    7.9911 H           1 MOL       0.1875
     40 H14        17.8499   21.3461    8.5687 H           1 MOL       0.0726
     41 H15        16.4137   20.6714   10.3073 H           1 MOL       0.0308
     42 H16        18.0033   20.0254   10.6025 H           1 MOL       0.0308
     43 H17        16.7073   18.3274   11.3667 H           1 MOL       0.0297
     44 H18        14.5629   17.5096   10.5812 H           1 MOL       0.0232
     45 H19        14.6195   18.5663    9.1668 H           1 MOL       0.0232
     46 H20        14.4914   19.2620   10.7897 H           1 MOL       0.0232
     47 H21        18.2125   17.3289    9.6537 H           1 MOL       0.0232
     48 H22        16.8817   17.3785    8.4723 H           1 MOL       0.0232
     49 H23        16.7531   16.3654    9.9174 H           1 MOL       0.0232
@<TRIPOS>BOND
     1     3     2   1
     2     2     5   1
     3     2     1   1
     4     5     6   1
     5     6     7   1
     6     7     8  ar
     7     7     9  ar
     8     3     4   2
     9    12    11   1
    10    11    14   1
    11    11    10   1
    12    14    15   1
    13    15    16  ar
    14    15    17  ar
    15    12    13   2
    16    19    20   1
    17    19    22   1
    18    18    19   1
    19    22    23   1
    20    23    25   1
    21    23    24   1
    22    20    26  ar
    23    20    21  ar
    24    10     3  am
    25    12    18  am
    26     1    27   1
    27     1    28   1
    28     1    29   1
    29     2    30   1
    30     5    31   1
    31     5    32   1
    32     6    33   1
    33     6    34   1
    34    10    35   1
    35    11    36   1
    36    14    37   1
    37    14    38   1
    38    18    39   1
    39    19    40   1
    40    22    41   1
    41    22    42   1
    42    23    43   1
    43    24    44   1
    44    24    45   1
    45    24    46   1
    46    25    47   1
    47    25    48   1
    48    25    49   1
@<TRIPOS>SUBSTRUCTURE
     1  MOL      2

