@<TRIPOS>MOLECULE
1a30_ligand_022
    49    48
SMALL
GAST_HUCK
****
This file was generated by PARSER (from files_GN.cpp)

@<TRIPOS>ATOM
      1 N          15.0057   24.3858    4.9503 N.4         1 MOL       0.2380
      2 CA         14.2367   23.1315    5.0352 C.3         1 MOL       0.0665
      3 C          14.9893   22.0101    4.4796 C.2         1 MOL       0.2269
      4 O          15.9086   22.2112    3.6905 O.2         1 MOL      -0.3907
      5 CB         12.8433   23.2757    4.3444 C.3         1 MOL       0.0194
      6 CG         12.2061   24.6917    4.3940 C.3         1 MOL       0.0075
      7 CD         11.8139   25.1246    5.7447 C.2         1 MOL       0.0351
      8 OE1        11.2736   24.2463    6.6247 O.co2       1 MOL      -0.5690
      9 OE2        12.0499   26.3898    6.1570 O.co2       1 MOL      -0.5690
     10 N          14.6476   20.7747    4.8294 N.am        1 MOL      -0.2595
     11 CA         15.1958   19.5220    4.3913 C.3         1 MOL       0.1424
     12 C          16.5694   19.3403    4.8635 C.2         1 MOL       0.2051
     13 O          17.4887   19.7812    4.1838 O.2         1 MOL      -0.3943
     14 CB         15.0131   19.3101    2.8530 C.3         1 MOL       0.0406
     15 CG         14.8448   17.8929    2.4638 C.2         1 MOL       0.0393
     16 OD1        15.9195   17.1266    2.1758 O.co2       1 MOL      -0.5688
     17 OD2        13.6066   17.4137    2.1763 O.co2       1 MOL      -0.5688
     18 N          16.7866   18.7111    6.0214 N.am        1 MOL      -0.2694
     19 CA         17.9718   18.4678    6.8089 C.3         1 MOL       0.0946
     20 C          19.1877   19.2951    6.6387 C.2         1 MOL       0.0601
     21 O          20.0404   19.4777    7.6751 O.co2       1 MOL      -0.5666
     22 CB         18.2927   16.9397    6.8944 C.3         1 MOL      -0.0156
     23 CG         18.5416   16.0575    5.6297 C.3         1 MOL      -0.0431
     24 CD1        17.4841   16.2453    4.5142 C.3         1 MOL      -0.0625
     25 CD2        19.9728   16.1448    5.0281 C.3         1 MOL      -0.0625
     26 OXT        19.5206   19.8803    5.4625 O.co2       1 MOL      -0.5666
     27 H1         14.5517   25.1106    5.5098 H           1 MOL       0.2015
     28 H2         15.0935   24.6897    3.9727 H           1 MOL       0.2015
     29 H3         15.9430   24.2273    5.3359 H           1 MOL       0.2015
     30 H4         14.0881   22.9406    6.0988 H           1 MOL       0.1099
     31 H5         12.1412   22.5710    4.8088 H           1 MOL       0.0363
     32 H6         12.9389   22.9872    3.2894 H           1 MOL       0.0363
     33 H7         11.3063   24.6932    3.7699 H           1 MOL       0.0434
     34 H8         12.9041   25.4149    3.9623 H           1 MOL       0.0434
     35 H9         13.9064   20.7063    5.4512 H           1 MOL       0.1886
     36 H10        14.5571   18.7767    4.8724 H           1 MOL       0.0819
     37 H11        15.8648   19.7300    2.3119 H           1 MOL       0.0478
     38 H12        14.1166   19.8478    2.5166 H           1 MOL       0.0478
     39 H13        15.9749   18.4012    6.4574 H           1 MOL       0.1875
     40 H14        17.6209   18.7228    7.8105 H           1 MOL       0.0726
     41 H15        17.4543   16.4822    7.4310 H           1 MOL       0.0308
     42 H16        19.1644   16.8189    7.5473 H           1 MOL       0.0308
     43 H17        18.4381   15.0178    5.9655 H           1 MOL       0.0297
     44 H18        17.5994   15.4794    3.7431 H           1 MOL       0.0232
     45 H19        17.5970   17.2151    4.0344 H           1 MOL       0.0232
     46 H20        16.4754   16.1675    4.9259 H           1 MOL       0.0232
     47 H21        20.7249   16.1172    5.8158 H           1 MOL       0.0232
     48 H22        20.0982   17.0545    4.4454 H           1 MOL       0.0232
     49 H23        20.1548   15.2981    4.3563 H           1 MOL       0.0232
@<TRIPOS>BOND
     1     3     2   1
     2     2     5   1
     3     2     1   1
     4     5     6   1
     5     6     7   1
     6     7     8  ar
     7     7     9  ar
     8     3     4   2
     9    12    11   1
    10    11    14   1
    11    11    10   1
    12    14    15   1
    13    15    16  ar
    14    15    17  ar
    15    12    13   2
    16    19    20   1
    17    19    22   1
    18    18    19   1
    19    22    23   1
    20    23    25   1
    21    23    24   1
    22    20    26  ar
    23    20    21  ar
    24    10     3  am
    25    12    18  am
    26     1    27   1
    27     1    28   1
    28     1    29   1
    29     2    30   1
    30     5    31   1
    31     5    32   1
    32     6    33   1
    33     6    34   1
    34    10    35   1
    35    11    36   1
    36    14    37   1
    37    14    38   1
    38    18    39   1
    39    19    40   1
    40    22    41   1
    41    22    42   1
    42    23    43   1
    43    24    44   1
    44    24    45   1
    45    24    46   1
    46    25    47   1
    47    25    48   1
    48    25    49   1
@<TRIPOS>SUBSTRUCTURE
     1  MOL      2

