@<TRIPOS>MOLECULE
1a30_ligand_051
    49    48
SMALL
GAST_HUCK
****
This file was generated by PARSER (from files_GN.cpp)

@<TRIPOS>ATOM
      1 N          12.3911   25.8310    5.9153 N.4         1 MOL       0.2380
      2 CA         12.4830   24.7522    4.9192 C.3         1 MOL       0.0665
      3 C          11.2275   24.5430    4.2055 C.2         1 MOL       0.2269
      4 O          11.2402   23.7795    3.2456 O.2         1 MOL      -0.3907
      5 CB         13.0633   23.4886    5.6258 C.3         1 MOL       0.0194
      6 CG         13.0057   22.1574    4.8224 C.3         1 MOL       0.0075
      7 CD         11.7376   21.4278    4.9914 C.2         1 MOL       0.0351
      8 OE1        11.4043   20.8870    6.1926 O.co2       1 MOL      -0.5690
      9 OE2        10.8997   21.2245    3.9529 O.co2       1 MOL      -0.5690
     10 N          10.0923   25.1551    4.5437 N.am        1 MOL      -0.2595
     11 CA          8.8108   25.0130    3.8820 C.3         1 MOL       0.1424
     12 C           7.7846   25.8547    4.5022 C.2         1 MOL       0.2051
     13 O           8.1157   26.8692    5.1141 O.2         1 MOL      -0.3943
     14 CB          8.4170   23.4866    3.7667 C.3         1 MOL       0.0406
     15 CG          8.3136   22.9992    2.3761 C.2         1 MOL       0.0393
     16 OD1         8.3731   21.6643    2.1239 O.co2       1 MOL      -0.5688
     17 OD2         7.7837   23.7926    1.4118 O.co2       1 MOL      -0.5688
     18 N           6.4954   25.6469    4.2222 N.am        1 MOL      -0.2694
     19 CA          5.3678   26.4790    4.5528 C.3         1 MOL       0.0946
     20 C           4.4942   25.7408    5.4930 C.2         1 MOL       0.0601
     21 O           3.8952   24.5666    5.1830 O.co2       1 MOL      -0.5666
     22 CB          4.6890   27.0399    3.2512 C.3         1 MOL      -0.0156
     23 CG          4.2672   26.0617    2.0904 C.3         1 MOL      -0.0431
     24 CD1         2.9133   25.3325    2.3375 C.3         1 MOL      -0.0625
     25 CD2         4.2262   26.7978    0.7193 C.3         1 MOL      -0.0625
     26 OXT         4.4488   26.1307    6.7960 O.co2       1 MOL      -0.5666
     27 H1         13.3162   25.9959    6.3208 H           1 MOL       0.2015
     28 H2         11.7442   25.5726    6.6628 H           1 MOL       0.2015
     29 H3         12.0698   26.6878    5.4653 H           1 MOL       0.2015
     30 H4         13.2257   25.1028    4.1910 H           1 MOL       0.1099
     31 H5         12.5691   23.3551    6.5906 H           1 MOL       0.0363
     32 H6         14.1170   23.7014    5.8388 H           1 MOL       0.0363
     33 H7         13.8122   21.4993    5.1667 H           1 MOL       0.0434
     34 H8         13.1903   22.3667    3.7630 H           1 MOL       0.0434
     35 H9         10.1257   25.7777    5.2878 H           1 MOL       0.1886
     36 H10         8.9229   25.4393    2.8753 H           1 MOL       0.0819
     37 H11         7.4576   23.2881    4.2545 H           1 MOL       0.0478
     38 H12         9.1553   22.8685    4.2905 H           1 MOL       0.0478
     39 H13         6.2838   24.8481    3.7160 H           1 MOL       0.1875
     40 H14         5.7005   27.3603    5.1163 H           1 MOL       0.0726
     41 H15         5.4305   27.7305    2.8241 H           1 MOL       0.0308
     42 H16         3.8289   27.6578    3.5386 H           1 MOL       0.0308
     43 H17         5.0456   25.2901    1.9921 H           1 MOL       0.0297
     44 H18         2.5871   24.8198    1.4270 H           1 MOL       0.0232
     45 H19         2.1417   26.0551    2.6346 H           1 MOL       0.0232
     46 H20         3.0290   24.5722    3.1205 H           1 MOL       0.0232
     47 H21         5.2038   27.2369    0.4962 H           1 MOL       0.0232
     48 H22         3.4690   27.5872    0.7309 H           1 MOL       0.0232
     49 H23         3.9900   26.0867   -0.0796 H           1 MOL       0.0232
@<TRIPOS>BOND
     1     3     2   1
     2     2     5   1
     3     2     1   1
     4     5     6   1
     5     6     7   1
     6     7     8  ar
     7     7     9  ar
     8     3     4   2
     9    12    11   1
    10    11    14   1
    11    11    10   1
    12    14    15   1
    13    15    16  ar
    14    15    17  ar
    15    12    13   2
    16    19    20   1
    17    19    22   1
    18    18    19   1
    19    22    23   1
    20    23    25   1
    21    23    24   1
    22    20    26  ar
    23    20    21  ar
    24    10     3  am
    25    12    18  am
    26     1    27   1
    27     1    28   1
    28     1    29   1
    29     2    30   1
    30     5    31   1
    31     5    32   1
    32     6    33   1
    33     6    34   1
    34    10    35   1
    35    11    36   1
    36    14    37   1
    37    14    38   1
    38    18    39   1
    39    19    40   1
    40    22    41   1
    41    22    42   1
    42    23    43   1
    43    24    44   1
    44    24    45   1
    45    24    46   1
    46    25    47   1
    47    25    48   1
    48    25    49   1
@<TRIPOS>SUBSTRUCTURE
     1  MOL      2

