@<TRIPOS>MOLECULE
1a30_ligand_068
    49    48
SMALL
GAST_HUCK
****
This file was generated by PARSER (from files_GN.cpp)

@<TRIPOS>ATOM
      1 N           0.7332   29.3934    5.7594 N.4         1 MOL       0.2380
      2 CA          2.0603   29.3913    5.1145 C.3         1 MOL       0.0665
      3 C           2.8241   28.1967    5.4863 C.2         1 MOL       0.2269
      4 O           2.6723   27.6918    6.5942 O.2         1 MOL      -0.3907
      5 CB          2.8824   30.6987    5.4122 C.3         1 MOL       0.0194
      6 CG          2.1202   31.9392    5.9792 C.3         1 MOL       0.0075
      7 CD          1.9214   31.8875    7.4466 C.2         1 MOL       0.0351
      8 OE1         2.4972   32.8130    8.2461 O.co2       1 MOL      -0.5690
      9 OE2         1.2430   30.8821    8.0449 O.co2       1 MOL      -0.5690
     10 N           3.7927   27.7665    4.6874 N.am        1 MOL      -0.2595
     11 CA          4.8401   26.8324    5.0468 C.3         1 MOL       0.1424
     12 C           5.5527   27.2157    6.2714 C.2         1 MOL       0.2051
     13 O           5.3269   28.3031    6.7893 O.2         1 MOL      -0.3943
     14 CB          5.7790   26.6381    3.8155 C.3         1 MOL       0.0406
     15 CG          6.8814   27.6164    3.7038 C.2         1 MOL       0.0393
     16 OD1         7.5267   28.0531    4.8077 O.co2       1 MOL      -0.5688
     17 OD2         7.3662   27.9698    2.4942 O.co2       1 MOL      -0.5688
     18 N           6.4266   26.3888    6.8403 N.am        1 MOL      -0.2694
     19 CA          7.1148   26.5915    8.0935 C.3         1 MOL       0.0946
     20 C           7.8387   27.8843    8.2119 C.2         1 MOL       0.0601
     21 O           8.2077   28.6060    7.1354 O.co2       1 MOL      -0.5666
     22 CB          8.0549   25.3919    8.4347 C.3         1 MOL      -0.0156
     23 CG          9.3152   25.1668    7.5160 C.3         1 MOL      -0.0431
     24 CD1        10.5875   24.8844    8.3642 C.3         1 MOL      -0.0625
     25 CD2         9.1324   24.0352    6.4678 C.3         1 MOL      -0.0625
     26 OXT         8.3256   28.2752    9.4104 O.co2       1 MOL      -0.5666
     27 H1          0.1818   30.1897    5.4257 H           1 MOL       0.2015
     28 H2          0.8509   29.4566    6.7723 H           1 MOL       0.2015
     29 H3          0.2374   28.5282    5.5287 H           1 MOL       0.2015
     30 H4          1.8668   29.3421    4.0385 H           1 MOL       0.1099
     31 H5          3.3417   30.9980    4.4633 H           1 MOL       0.0363
     32 H6          3.7174   30.4793    6.0850 H           1 MOL       0.0363
     33 H7          1.1533   32.0669    5.4892 H           1 MOL       0.0434
     34 H8          2.7085   32.8340    5.7539 H           1 MOL       0.0434
     35 H9          3.8482   28.1774    3.8086 H           1 MOL       0.1886
     36 H10         4.3734   25.8610    5.2378 H           1 MOL       0.0819
     37 H11         5.1665   26.6934    2.9099 H           1 MOL       0.0478
     38 H12         6.2099   25.6338    3.8349 H           1 MOL       0.0478
     39 H13         6.5500   25.5282    6.4106 H           1 MOL       0.1875
     40 H14         6.3356   26.6125    8.8614 H           1 MOL       0.0726
     41 H15         7.4559   24.4757    8.4604 H           1 MOL       0.0308
     42 H16         8.3931   25.5544    9.4655 H           1 MOL       0.0308
     43 H17         9.5189   26.0858    6.9608 H           1 MOL       0.0297
     44 H18        11.4593   24.7622    7.7185 H           1 MOL       0.0232
     45 H19        10.4606   23.9747    8.9550 H           1 MOL       0.0232
     46 H20        10.7849   25.7177    9.0425 H           1 MOL       0.0232
     47 H21         8.3323   24.2714    5.7678 H           1 MOL       0.0232
     48 H22         8.9080   23.0876    6.9650 H           1 MOL       0.0232
     49 H23        10.0518   23.9072    5.8859 H           1 MOL       0.0232
@<TRIPOS>BOND
     1     3     2   1
     2     2     5   1
     3     2     1   1
     4     5     6   1
     5     6     7   1
     6     7     8  ar
     7     7     9  ar
     8     3     4   2
     9    12    11   1
    10    11    14   1
    11    11    10   1
    12    14    15   1
    13    15    16  ar
    14    15    17  ar
    15    12    13   2
    16    19    20   1
    17    19    22   1
    18    18    19   1
    19    22    23   1
    20    23    25   1
    21    23    24   1
    22    20    26  ar
    23    20    21  ar
    24    10     3  am
    25    12    18  am
    26     1    27   1
    27     1    28   1
    28     1    29   1
    29     2    30   1
    30     5    31   1
    31     5    32   1
    32     6    33   1
    33     6    34   1
    34    10    35   1
    35    11    36   1
    36    14    37   1
    37    14    38   1
    38    18    39   1
    39    19    40   1
    40    22    41   1
    41    22    42   1
    42    23    43   1
    43    24    44   1
    44    24    45   1
    45    24    46   1
    46    25    47   1
    47    25    48   1
    48    25    49   1
@<TRIPOS>SUBSTRUCTURE
     1  MOL      2

