@<TRIPOS>MOLECULE
1a30_ligand_007
    49    48
SMALL
GAST_HUCK
****
This file was generated by PARSER (from files_GN.cpp)

@<TRIPOS>ATOM
      1 N          15.1764   24.1869    5.0362 N.4         1 MOL       0.2380
      2 CA         14.5993   22.8517    5.2753 C.3         1 MOL       0.0665
      3 C          15.6422   21.8364    5.1086 C.2         1 MOL       0.2269
      4 O          16.1992   21.7446    4.0196 O.2         1 MOL      -0.3907
      5 CB         13.3581   22.6499    4.3632 C.3         1 MOL       0.0194
      6 CG         12.5858   21.3120    4.5250 C.3         1 MOL       0.0075
      7 CD         12.2607   20.9646    5.9199 C.2         1 MOL       0.0351
      8 OE1        13.2298   20.8210    6.8520 O.co2       1 MOL      -0.5690
      9 OE2        10.9772   20.7914    6.3084 O.co2       1 MOL      -0.5690
     10 N          16.0414   21.1190    6.1487 N.am        1 MOL      -0.2595
     11 CA         17.2502   20.3445    6.2637 C.3         1 MOL       0.1424
     12 C          17.3952   19.2561    5.2957 C.2         1 MOL       0.2051
     13 O          18.1947   19.3833    4.3723 O.2         1 MOL      -0.3943
     14 CB         17.4692   19.8786    7.7403 C.3         1 MOL       0.0406
     15 CG         16.3787   19.1317    8.4060 C.2         1 MOL       0.0393
     16 OD1        15.1078   19.5993    8.4311 O.co2       1 MOL      -0.5688
     17 OD2        16.6976   18.1892    9.3219 O.co2       1 MOL      -0.5688
     18 N          16.7698   18.0981    5.4432 N.am        1 MOL      -0.2694
     19 CA         17.0481   16.8499    4.7792 C.3         1 MOL       0.0946
     20 C          18.2873   16.2249    5.3127 C.2         1 MOL       0.0601
     21 O          19.4824   16.4066    4.7032 O.co2       1 MOL      -0.5666
     22 CB         17.0822   16.9273    3.2148 C.3         1 MOL      -0.0156
     23 CG         15.7647   17.2996    2.4376 C.3         1 MOL      -0.0431
     24 CD1        14.4693   17.3608    3.3023 C.3         1 MOL      -0.0625
     25 CD2        15.9179   18.6013    1.6028 C.3         1 MOL      -0.0625
     26 OXT        18.2064   15.2585    6.2575 O.co2       1 MOL      -0.5666
     27 H1         14.6197   24.9023    5.5135 H           1 MOL       0.2015
     28 H2         15.2215   24.4018    4.0296 H           1 MOL       0.2015
     29 H3         16.1201   24.2168    5.4292 H           1 MOL       0.2015
     30 H4         14.2604   22.8688    6.3186 H           1 MOL       0.1099
     31 H5         13.6793   22.7256    3.3223 H           1 MOL       0.0363
     32 H6         12.6561   23.4702    4.5451 H           1 MOL       0.0363
     33 H7         13.1677   20.4931    4.0871 H           1 MOL       0.0434
     34 H8         11.6603   21.3897    3.9545 H           1 MOL       0.0434
     35 H9         15.5311   21.2369    6.9672 H           1 MOL       0.1886
     36 H10        18.0611   21.0534    6.0788 H           1 MOL       0.0819
     37 H11        17.6583   20.7570    8.3561 H           1 MOL       0.0478
     38 H12        18.3674   19.2594    7.7802 H           1 MOL       0.0478
     39 H13        16.1188   18.0396    6.1530 H           1 MOL       0.1875
     40 H14        16.2230   16.1751    5.0330 H           1 MOL       0.0726
     41 H15        17.4045   15.9380    2.8375 H           1 MOL       0.0308
     42 H16        17.8756   17.6440    2.9351 H           1 MOL       0.0308
     43 H17        15.5876   16.5155    1.6955 H           1 MOL       0.0297
     44 H18        13.5886   17.4980    2.6665 H           1 MOL       0.0232
     45 H19        14.5112   18.1791    4.0176 H           1 MOL       0.0232
     46 H20        14.3390   16.4234    3.8524 H           1 MOL       0.0232
     47 H21        16.7664   18.5156    0.9187 H           1 MOL       0.0232
     48 H22        16.0858   19.4643    2.2555 H           1 MOL       0.0232
     49 H23        15.0253   18.7812    1.0052 H           1 MOL       0.0232
@<TRIPOS>BOND
     1     3     2   1
     2     2     5   1
     3     2     1   1
     4     5     6   1
     5     6     7   1
     6     7     8  ar
     7     7     9  ar
     8     3     4   2
     9    12    11   1
    10    11    14   1
    11    11    10   1
    12    14    15   1
    13    15    16  ar
    14    15    17  ar
    15    12    13   2
    16    19    20   1
    17    19    22   1
    18    18    19   1
    19    22    23   1
    20    23    25   1
    21    23    24   1
    22    20    26  ar
    23    20    21  ar
    24    10     3  am
    25    12    18  am
    26     1    27   1
    27     1    28   1
    28     1    29   1
    29     2    30   1
    30     5    31   1
    31     5    32   1
    32     6    33   1
    33     6    34   1
    34    10    35   1
    35    11    36   1
    36    14    37   1
    37    14    38   1
    38    18    39   1
    39    19    40   1
    40    22    41   1
    41    22    42   1
    42    23    43   1
    43    24    44   1
    44    24    45   1
    45    24    46   1
    46    25    47   1
    47    25    48   1
    48    25    49   1
@<TRIPOS>SUBSTRUCTURE
     1  MOL      2

