@<TRIPOS>MOLECULE
1a30_ligand_029
    49    48
SMALL
GAST_HUCK
****
This file was generated by PARSER (from files_GN.cpp)

@<TRIPOS>ATOM
      1 N          14.1856   24.6408    4.5903 N.4         1 MOL       0.2380
      2 CA         12.7733   24.9719    4.3370 C.3         1 MOL       0.0665
      3 C          12.0532   24.9591    5.6027 C.2         1 MOL       0.2269
      4 O          11.8604   26.0347    6.1642 O.2         1 MOL      -0.3907
      5 CB         12.0976   24.1521    3.1914 C.3         1 MOL       0.0194
      6 CG         12.5106   22.6502    3.0447 C.3         1 MOL       0.0075
      7 CD         11.4053   21.7007    3.2832 C.2         1 MOL       0.0351
      8 OE1        10.7158   21.1708    2.2506 O.co2       1 MOL      -0.5690
      9 OE2        11.1687   21.2210    4.5359 O.co2       1 MOL      -0.5690
     10 N          11.6680   23.8106    6.1478 N.am        1 MOL      -0.2595
     11 CA         10.9388   23.5709    7.3659 C.3         1 MOL       0.1424
     12 C           9.5756   24.1087    7.3187 C.2         1 MOL       0.2051
     13 O           8.6176   23.3492    7.4588 O.2         1 MOL      -0.3943
     14 CB         11.7296   24.0244    8.6351 C.3         1 MOL       0.0406
     15 CG         12.8078   23.1032    9.0755 C.2         1 MOL       0.0393
     16 OD1        13.6480   23.5203   10.0470 O.co2       1 MOL      -0.5688
     17 OD2        12.7868   21.7789    8.7687 O.co2       1 MOL      -0.5688
     18 N           9.3747   25.4139    7.1559 N.am        1 MOL      -0.2694
     19 CA          8.1215   26.1062    7.0311 C.3         1 MOL       0.0946
     20 C           8.0629   26.5888    5.6243 C.2         1 MOL       0.0601
     21 O           7.9876   27.9084    5.3179 O.co2       1 MOL      -0.5666
     22 CB          8.0363   27.2480    8.0948 C.3         1 MOL      -0.0156
     23 CG          7.9760   26.8122    9.5995 C.3         1 MOL      -0.0431
     24 CD1         9.2252   26.0111   10.0678 C.3         1 MOL      -0.0625
     25 CD2         7.7692   28.0579   10.5079 C.3         1 MOL      -0.0625
     26 OXT         8.1803   25.7149    4.5999 O.co2       1 MOL      -0.5666
     27 H1         14.6810   24.6444    3.6999 H           1 MOL       0.2015
     28 H2         14.2699   23.7285    5.0468 H           1 MOL       0.2015
     29 H3         14.5857   25.3725    5.1842 H           1 MOL       0.2015
     30 H4         12.8045   26.0094    3.9712 H           1 MOL       0.1099
     31 H5         12.3435   24.6462    2.2458 H           1 MOL       0.0363
     32 H6         11.0099   24.2420    3.2897 H           1 MOL       0.0363
     33 H7         13.3325   22.3897    3.7196 H           1 MOL       0.0434
     34 H8         12.8825   22.4855    2.0265 H           1 MOL       0.0434
     35 H9         11.9147   23.0072    5.6546 H           1 MOL       0.1886
     36 H10        10.8377   22.4821    7.4248 H           1 MOL       0.0819
     37 H11        11.0169   24.1517    9.4690 H           1 MOL       0.0478
     38 H12        12.1873   25.0014    8.4419 H           1 MOL       0.0478
     39 H13        10.1701   25.9671    7.0685 H           1 MOL       0.1875
     40 H14         7.2615   25.4389    7.1753 H           1 MOL       0.0726
     41 H15         7.1247   27.8166    7.8825 H           1 MOL       0.0308
     42 H16         8.8850   27.9287    7.9510 H           1 MOL       0.0308
     43 H17         7.1002   26.1634    9.7259 H           1 MOL       0.0297
     44 H18         9.2101   25.8611   11.1530 H           1 MOL       0.0232
     45 H19        10.1462   26.5451    9.8030 H           1 MOL       0.0232
     46 H20         9.2445   25.0157    9.6038 H           1 MOL       0.0232
     47 H21         6.8214   28.5384   10.2677 H           1 MOL       0.0232
     48 H22         8.5855   28.7727   10.3627 H           1 MOL       0.0232
     49 H23         7.7358   27.7703   11.5609 H           1 MOL       0.0232
@<TRIPOS>BOND
     1     3     2   1
     2     2     5   1
     3     2     1   1
     4     5     6   1
     5     6     7   1
     6     7     8  ar
     7     7     9  ar
     8     3     4   2
     9    12    11   1
    10    11    14   1
    11    11    10   1
    12    14    15   1
    13    15    16  ar
    14    15    17  ar
    15    12    13   2
    16    19    20   1
    17    19    22   1
    18    18    19   1
    19    22    23   1
    20    23    25   1
    21    23    24   1
    22    20    26  ar
    23    20    21  ar
    24    10     3  am
    25    12    18  am
    26     1    27   1
    27     1    28   1
    28     1    29   1
    29     2    30   1
    30     5    31   1
    31     5    32   1
    32     6    33   1
    33     6    34   1
    34    10    35   1
    35    11    36   1
    36    14    37   1
    37    14    38   1
    38    18    39   1
    39    19    40   1
    40    22    41   1
    41    22    42   1
    42    23    43   1
    43    24    44   1
    44    24    45   1
    45    24    46   1
    46    25    47   1
    47    25    48   1
    48    25    49   1
@<TRIPOS>SUBSTRUCTURE
     1  MOL      2

