@<TRIPOS>MOLECULE
1a30_ligand_057
    49    48
SMALL
GAST_HUCK
****
This file was generated by PARSER (from files_GN.cpp)

@<TRIPOS>ATOM
      1 N          13.7923   24.9536    4.6118 N.4         1 MOL       0.2380
      2 CA         13.2727   23.5770    4.7418 C.3         1 MOL       0.0665
      3 C          14.3854   22.6311    4.8730 C.2         1 MOL       0.2269
      4 O          15.5292   23.0477    5.0189 O.2         1 MOL      -0.3907
      5 CB         12.3049   23.2158    3.5642 C.3         1 MOL       0.0194
      6 CG         11.4083   24.3547    2.9995 C.3         1 MOL       0.0075
      7 CD         10.4424   24.9224    3.9648 C.2         1 MOL       0.0351
      8 OE1         9.1205   24.9040    3.6885 O.co2       1 MOL      -0.5690
      9 OE2        10.8563   25.6591    5.0176 O.co2       1 MOL      -0.5690
     10 N          14.1693   21.3183    4.9169 N.am        1 MOL      -0.2595
     11 CA         15.1629   20.2788    5.0932 C.3         1 MOL       0.1424
     12 C          15.7048   20.3649    6.4456 C.2         1 MOL       0.2051
     13 O          16.9168   20.3978    6.6340 O.2         1 MOL      -0.3943
     14 CB         16.1960   20.2581    3.9093 C.3         1 MOL       0.0406
     15 CG         17.1383   19.1207    3.8324 C.2         1 MOL       0.0393
     16 OD1        17.5599   18.4568    4.9315 O.co2       1 MOL      -0.5688
     17 OD2        17.8712   18.9661    2.7045 O.co2       1 MOL      -0.5688
     18 N          14.8577   20.4640    7.4651 N.am        1 MOL      -0.2694
     19 CA         15.1270   20.5622    8.8669 C.3         1 MOL       0.0946
     20 C          15.1509   21.9914    9.2624 C.2         1 MOL       0.0601
     21 O          14.1395   22.5229    9.9811 O.co2       1 MOL      -0.5666
     22 CB         16.3731   19.7626    9.3809 C.3         1 MOL      -0.0156
     23 CG         16.2025   19.1445   10.8062 C.3         1 MOL      -0.0431
     24 CD1        15.5232   17.7458   10.7210 C.3         1 MOL      -0.0625
     25 CD2        17.5638   19.0407   11.5527 C.3         1 MOL      -0.0625
     26 OXT        16.1837   22.7946    8.9252 O.co2       1 MOL      -0.5666
     27 H1         13.0179   25.6183    4.5685 H           1 MOL       0.2015
     28 H2         14.3482   25.0209    3.7570 H           1 MOL       0.2015
     29 H3         14.3813   25.1821    5.4144 H           1 MOL       0.2015
     30 H4         12.7007   23.5411    5.6724 H           1 MOL       0.1099
     31 H5         11.6512   22.3990    3.8911 H           1 MOL       0.0363
     32 H6         12.8916   22.8260    2.7273 H           1 MOL       0.0363
     33 H7         10.8517   23.9473    2.1527 H           1 MOL       0.0434
     34 H8         12.0392   25.1549    2.6100 H           1 MOL       0.0434
     35 H9         13.2501   21.0213    4.8287 H           1 MOL       0.1886
     36 H10        14.6109   19.3342    5.0363 H           1 MOL       0.0819
     37 H11        16.7954   21.1719    3.9343 H           1 MOL       0.0478
     38 H12        15.6380   20.2607    2.9722 H           1 MOL       0.0478
     39 H13        13.9147   20.4991    7.2287 H           1 MOL       0.1875
     40 H14        14.2416   20.1226    9.3261 H           1 MOL       0.0726
     41 H15        17.2470   20.4187    9.3754 H           1 MOL       0.0308
     42 H16        16.6105   18.9504    8.6861 H           1 MOL       0.0308
     43 H17        15.5647   19.7991   11.4114 H           1 MOL       0.0297
     44 H18        15.3545   17.3275   11.7153 H           1 MOL       0.0232
     45 H19        16.1458   17.0467   10.1598 H           1 MOL       0.0232
     46 H20        14.5613   17.8193   10.2155 H           1 MOL       0.0232
     47 H21        17.9805   20.0389   11.7054 H           1 MOL       0.0232
     48 H22        18.2802   18.4523   10.9790 H           1 MOL       0.0232
     49 H23        17.4379   18.5779   12.5364 H           1 MOL       0.0232
@<TRIPOS>BOND
     1     3     2   1
     2     2     5   1
     3     2     1   1
     4     5     6   1
     5     6     7   1
     6     7     8  ar
     7     7     9  ar
     8     3     4   2
     9    12    11   1
    10    11    14   1
    11    11    10   1
    12    14    15   1
    13    15    16  ar
    14    15    17  ar
    15    12    13   2
    16    19    20   1
    17    19    22   1
    18    18    19   1
    19    22    23   1
    20    23    25   1
    21    23    24   1
    22    20    26  ar
    23    20    21  ar
    24    10     3  am
    25    12    18  am
    26     1    27   1
    27     1    28   1
    28     1    29   1
    29     2    30   1
    30     5    31   1
    31     5    32   1
    32     6    33   1
    33     6    34   1
    34    10    35   1
    35    11    36   1
    36    14    37   1
    37    14    38   1
    38    18    39   1
    39    19    40   1
    40    22    41   1
    41    22    42   1
    42    23    43   1
    43    24    44   1
    44    24    45   1
    45    24    46   1
    46    25    47   1
    47    25    48   1
    48    25    49   1
@<TRIPOS>SUBSTRUCTURE
     1  MOL      2

