@<TRIPOS>MOLECULE
1a30_ligand_017
    49    48
SMALL
GAST_HUCK
****
This file was generated by PARSER (from files_GN.cpp)

@<TRIPOS>ATOM
      1 N           4.2937   31.1129    6.9864 N.4         1 MOL       0.2380
      2 CA          3.2082   30.1188    7.0652 C.3         1 MOL       0.0665
      3 C           3.7978   28.7946    7.2230 C.2         1 MOL       0.2269
      4 O           3.5146   28.1226    8.2060 O.2         1 MOL      -0.3907
      5 CB          2.2773   30.1792    5.8186 C.3         1 MOL       0.0194
      6 CG          1.9866   31.6225    5.2807 C.3         1 MOL       0.0075
      7 CD          2.9943   32.1047    4.3088 C.2         1 MOL       0.0351
      8 OE1         4.1638   32.6551    4.7290 O.co2       1 MOL      -0.5690
      9 OE2         2.7824   31.9562    2.9800 O.co2       1 MOL      -0.5690
     10 N           4.6991   28.3832    6.3425 N.am        1 MOL      -0.2595
     11 CA          5.4883   27.1756    6.3833 C.3         1 MOL       0.1424
     12 C           6.7363   27.3367    7.1356 C.2         1 MOL       0.2051
     13 O           7.1725   28.4550    7.4121 O.2         1 MOL      -0.3943
     14 CB          5.7048   26.6871    4.9158 C.3         1 MOL       0.0406
     15 CG          6.6248   27.5340    4.1124 C.2         1 MOL       0.0393
     16 OD1         7.6686   28.1767    4.6939 O.co2       1 MOL      -0.5688
     17 OD2         6.5940   27.4714    2.7528 O.co2       1 MOL      -0.5688
     18 N           7.4648   26.2466    7.3919 N.am        1 MOL      -0.2694
     19 CA          8.7099   26.1464    8.1067 C.3         1 MOL       0.0946
     20 C           9.7274   27.2198    7.8748 C.2         1 MOL       0.0601
     21 O           9.4000   28.5123    7.6437 O.co2       1 MOL      -0.5666
     22 CB          9.3309   24.7281    7.8746 C.3         1 MOL      -0.0156
     23 CG          9.6355   24.2924    6.4027 C.3         1 MOL      -0.0431
     24 CD1        10.5068   25.3034    5.5989 C.3         1 MOL      -0.0625
     25 CD2        10.2998   22.8854    6.3767 C.3         1 MOL      -0.0625
     26 OXT        11.0327   26.9476    8.1109 O.co2       1 MOL      -0.5666
     27 H1          3.8950   32.0535    6.9702 H           1 MOL       0.2015
     28 H2          4.8249   30.9513    6.1297 H           1 MOL       0.2015
     29 H3          4.9044   31.0193    7.8028 H           1 MOL       0.2015
     30 H4          2.6008   30.3765    7.9416 H           1 MOL       0.1099
     31 H5          1.3073   29.7484    6.0975 H           1 MOL       0.0363
     32 H6          2.6723   29.5703    4.9999 H           1 MOL       0.0363
     33 H7          1.9278   32.3409    6.1155 H           1 MOL       0.0434
     34 H8          1.0054   31.6489    4.7765 H           1 MOL       0.0434
     35 H9          4.8994   29.0101    5.6268 H           1 MOL       0.1886
     36 H10         4.9113   26.3918    6.8887 H           1 MOL       0.0819
     37 H11         4.7310   26.6386    4.4143 H           1 MOL       0.0478
     38 H12         6.1099   25.6734    4.9052 H           1 MOL       0.0478
     39 H13         7.0667   25.3917    7.1262 H           1 MOL       0.1875
     40 H14         8.4396   26.2120    9.1705 H           1 MOL       0.0726
     41 H15         8.6302   24.0019    8.2935 H           1 MOL       0.0308
     42 H16        10.2534   24.6403    8.4623 H           1 MOL       0.0308
     43 H17         8.6867   24.1937    5.8677 H           1 MOL       0.0297
     44 H18        10.8336   24.8786    4.6507 H           1 MOL       0.0232
     45 H19        11.3918   25.5929    6.1695 H           1 MOL       0.0232
     46 H20         9.9330   26.1986    5.3662 H           1 MOL       0.0232
     47 H21         9.6524   22.1619    6.8670 H           1 MOL       0.0232
     48 H22        11.2621   22.8984    6.8914 H           1 MOL       0.0232
     49 H23        10.4546   22.5445    5.3538 H           1 MOL       0.0232
@<TRIPOS>BOND
     1     3     2   1
     2     2     5   1
     3     2     1   1
     4     5     6   1
     5     6     7   1
     6     7     8  ar
     7     7     9  ar
     8     3     4   2
     9    12    11   1
    10    11    14   1
    11    11    10   1
    12    14    15   1
    13    15    16  ar
    14    15    17  ar
    15    12    13   2
    16    19    20   1
    17    19    22   1
    18    18    19   1
    19    22    23   1
    20    23    25   1
    21    23    24   1
    22    20    26  ar
    23    20    21  ar
    24    10     3  am
    25    12    18  am
    26     1    27   1
    27     1    28   1
    28     1    29   1
    29     2    30   1
    30     5    31   1
    31     5    32   1
    32     6    33   1
    33     6    34   1
    34    10    35   1
    35    11    36   1
    36    14    37   1
    37    14    38   1
    38    18    39   1
    39    19    40   1
    40    22    41   1
    41    22    42   1
    42    23    43   1
    43    24    44   1
    44    24    45   1
    45    24    46   1
    46    25    47   1
    47    25    48   1
    48    25    49   1
@<TRIPOS>SUBSTRUCTURE
     1  MOL      2

