@<TRIPOS>MOLECULE
1a30_ligand_034
    49    48
SMALL
GAST_HUCK
****
This file was generated by PARSER (from files_GN.cpp)

@<TRIPOS>ATOM
      1 N          14.8609   24.3082    4.8231 N.4         1 MOL       0.2380
      2 CA         14.6166   22.8783    4.5724 C.3         1 MOL       0.0665
      3 C          13.4453   22.6830    3.7224 C.2         1 MOL       0.2269
      4 O          13.5492   21.9294    2.7575 O.2         1 MOL      -0.3907
      5 CB         14.6448   22.0277    5.8859 C.3         1 MOL       0.0194
      6 CG         13.2906   21.7110    6.5849 C.3         1 MOL       0.0075
      7 CD         12.3664   20.8549    5.8154 C.2         1 MOL       0.0351
      8 OE1        11.0884   20.7082    6.2294 O.co2       1 MOL      -0.5690
      9 OE2        12.7177   20.2732    4.6459 O.co2       1 MOL      -0.5690
     10 N          12.3171   23.3646    3.9198 N.am        1 MOL      -0.2595
     11 CA         11.1452   23.3619    3.0672 C.3         1 MOL       0.1424
     12 C          10.2050   24.4040    3.4926 C.2         1 MOL       0.2051
     13 O           9.8928   25.2763    2.6898 O.2         1 MOL      -0.3943
     14 CB         10.4420   21.9555    3.0001 C.3         1 MOL       0.0406
     15 CG         10.1794   21.5005    1.6171 C.2         1 MOL       0.0393
     16 OD1        11.2243   21.1619    0.8225 O.co2       1 MOL      -0.5688
     17 OD2         8.9189   21.2539    1.1805 O.co2       1 MOL      -0.5688
     18 N           9.6947   24.3680    4.7197 N.am        1 MOL      -0.2694
     19 CA          8.6308   25.1373    5.3222 C.3         1 MOL       0.0946
     20 C           8.4642   26.5511    4.8746 C.2         1 MOL       0.0601
     21 O           7.8554   26.7997    3.6938 O.co2       1 MOL      -0.5666
     22 CB          8.6808   24.9422    6.8718 C.3         1 MOL      -0.0156
     23 CG          9.8008   25.6501    7.7229 C.3         1 MOL      -0.0431
     24 CD1        10.0295   24.8905    9.0592 C.3         1 MOL      -0.0625
     25 CD2        11.1565   25.8671    6.9911 C.3         1 MOL      -0.0625
     26 OXT         8.5700   27.6076    5.7103 O.co2       1 MOL      -0.5666
     27 H1         15.7268   24.4254    5.3531 H           1 MOL       0.2015
     28 H2         14.0876   24.7217    5.3443 H           1 MOL       0.2015
     29 H3         14.9634   24.7816    3.9198 H           1 MOL       0.2015
     30 H4         15.5013   22.5665    4.0044 H           1 MOL       0.1099
     31 H5         15.2758   22.5569    6.6086 H           1 MOL       0.0363
     32 H6         15.1541   21.0813    5.6777 H           1 MOL       0.0363
     33 H7         12.7917   22.6472    6.8303 H           1 MOL       0.0434
     34 H8         13.4938   21.1881    7.5244 H           1 MOL       0.0434
     35 H9         12.3072   23.9943    4.6571 H           1 MOL       0.1886
     36 H10        11.5100   23.6255    2.0614 H           1 MOL       0.0819
     37 H11         9.4990   21.9600    3.5548 H           1 MOL       0.0478
     38 H12        11.0732   21.1950    3.4806 H           1 MOL       0.0478
     39 H13        10.0131   23.6277    5.2592 H           1 MOL       0.1875
     40 H14         7.7210   24.6243    4.9977 H           1 MOL       0.0726
     41 H15         8.7358   23.8629    7.0583 H           1 MOL       0.0308
     42 H16         7.7231   25.2662    7.2746 H           1 MOL       0.0308
     43 H17         9.4346   26.6427    7.9941 H           1 MOL       0.0297
     44 H18        10.6968   25.4580    9.7098 H           1 MOL       0.0232
     45 H19        10.4784   23.9128    8.8728 H           1 MOL       0.0232
     46 H20         9.0872   24.7467    9.5873 H           1 MOL       0.0232
     47 H21        11.0316   26.5395    6.1428 H           1 MOL       0.0232
     48 H22        11.5560   24.9175    6.6376 H           1 MOL       0.0232
     49 H23        11.8835   26.3214    7.6673 H           1 MOL       0.0232
@<TRIPOS>BOND
     1     3     2   1
     2     2     5   1
     3     2     1   1
     4     5     6   1
     5     6     7   1
     6     7     8  ar
     7     7     9  ar
     8     3     4   2
     9    12    11   1
    10    11    14   1
    11    11    10   1
    12    14    15   1
    13    15    16  ar
    14    15    17  ar
    15    12    13   2
    16    19    20   1
    17    19    22   1
    18    18    19   1
    19    22    23   1
    20    23    25   1
    21    23    24   1
    22    20    26  ar
    23    20    21  ar
    24    10     3  am
    25    12    18  am
    26     1    27   1
    27     1    28   1
    28     1    29   1
    29     2    30   1
    30     5    31   1
    31     5    32   1
    32     6    33   1
    33     6    34   1
    34    10    35   1
    35    11    36   1
    36    14    37   1
    37    14    38   1
    38    18    39   1
    39    19    40   1
    40    22    41   1
    41    22    42   1
    42    23    43   1
    43    24    44   1
    44    24    45   1
    45    24    46   1
    46    25    47   1
    47    25    48   1
    48    25    49   1
@<TRIPOS>SUBSTRUCTURE
     1  MOL      2

