@<TRIPOS>MOLECULE
1a30_ligand_012
    49    48
SMALL
GAST_HUCK
****
This file was generated by PARSER (from files_GN.cpp)

@<TRIPOS>ATOM
      1 N          14.8007   24.4587    4.7051 N.4         1 MOL       0.2380
      2 CA         13.4708   23.8248    4.6118 C.3         1 MOL       0.0665
      3 C          12.7846   23.7735    5.8960 C.2         1 MOL       0.2269
      4 O          11.6748   23.2465    5.9304 O.2         1 MOL      -0.3907
      5 CB         13.5991   22.4571    3.8600 C.3         1 MOL       0.0194
      6 CG         13.3591   21.1189    4.6352 C.3         1 MOL       0.0075
      7 CD         11.9534   20.8471    4.9761 C.2         1 MOL       0.0351
      8 OE1        11.5897   20.4454    6.2100 O.co2       1 MOL      -0.5690
      9 OE2        10.9618   21.1240    4.0863 O.co2       1 MOL      -0.5690
     10 N          13.3069   24.3049    6.9982 N.am        1 MOL      -0.2595
     11 CA         12.9037   24.1096    8.3586 C.3         1 MOL       0.1424
     12 C          13.2555   22.7483    8.7419 C.2         1 MOL       0.2051
     13 O          12.4533   22.0498    9.3703 O.2         1 MOL      -0.3943
     14 CB         11.4278   24.5586    8.6785 C.3         1 MOL       0.0406
     15 CG         10.9854   25.7899    8.0065 C.2         1 MOL       0.0393
     16 OD1        10.2590   26.7239    8.6804 O.co2       1 MOL      -0.5688
     17 OD2        10.9517   25.8552    6.6510 O.co2       1 MOL      -0.5688
     18 N          14.4579   22.2412    8.4483 N.am        1 MOL      -0.2694
     19 CA         14.9109   20.8944    8.6725 C.3         1 MOL       0.0946
     20 C          14.5715   20.4389   10.0422 C.2         1 MOL       0.0601
     21 O          14.6029   19.1206   10.3301 O.co2       1 MOL      -0.5666
     22 CB         16.4520   20.7473    8.4454 C.3         1 MOL      -0.0156
     23 CG         16.9499   20.7644    6.9625 C.3         1 MOL      -0.0431
     24 CD1        18.4983   20.8965    6.9138 C.3         1 MOL      -0.0625
     25 CD2        16.5210   19.5019    6.1588 C.3         1 MOL      -0.0625
     26 OXT        14.6477   21.3039   11.0857 O.co2       1 MOL      -0.5666
     27 H1         15.1364   24.6143    3.7605 H           1 MOL       0.2015
     28 H2         15.4533   23.8518    5.2083 H           1 MOL       0.2015
     29 H3         14.7454   25.3618    5.1723 H           1 MOL       0.2015
     30 H4         12.8741   24.4981    3.9805 H           1 MOL       0.1099
     31 H5         14.6122   22.3800    3.4430 H           1 MOL       0.0363
     32 H6         12.9363   22.4720    2.9852 H           1 MOL       0.0363
     33 H7         13.9627   21.1174    5.5397 H           1 MOL       0.0434
     34 H8         13.6943   20.2875    4.0137 H           1 MOL       0.0434
     35 H9         14.1108   24.8313    6.8792 H           1 MOL       0.1886
     36 H10        13.5525   24.7671    8.9533 H           1 MOL       0.0819
     37 H11        11.3542   24.7097    9.7595 H           1 MOL       0.0478
     38 H12        10.7239   23.7653    8.4127 H           1 MOL       0.0478
     39 H13        15.0863   22.8501    8.0203 H           1 MOL       0.1875
     40 H14        14.3863   20.2382    7.9669 H           1 MOL       0.0726
     41 H15        16.8054   19.8140    8.8947 H           1 MOL       0.0308
     42 H16        16.9336   21.5622    8.9928 H           1 MOL       0.0308
     43 H17        16.5305   21.6449    6.4647 H           1 MOL       0.0297
     44 H18        18.8547   20.9140    5.8806 H           1 MOL       0.0232
     45 H19        18.9746   20.0561    7.4277 H           1 MOL       0.0232
     46 H20        18.8183   21.8233    7.3954 H           1 MOL       0.0232
     47 H21        15.4370   19.4108    6.1136 H           1 MOL       0.0232
     48 H22        16.9241   18.5944    6.6172 H           1 MOL       0.0232
     49 H23        16.8917   19.5628    5.1313 H           1 MOL       0.0232
@<TRIPOS>BOND
     1     3     2   1
     2     2     5   1
     3     2     1   1
     4     5     6   1
     5     6     7   1
     6     7     8  ar
     7     7     9  ar
     8     3     4   2
     9    12    11   1
    10    11    14   1
    11    11    10   1
    12    14    15   1
    13    15    16  ar
    14    15    17  ar
    15    12    13   2
    16    19    20   1
    17    19    22   1
    18    18    19   1
    19    22    23   1
    20    23    25   1
    21    23    24   1
    22    20    26  ar
    23    20    21  ar
    24    10     3  am
    25    12    18  am
    26     1    27   1
    27     1    28   1
    28     1    29   1
    29     2    30   1
    30     5    31   1
    31     5    32   1
    32     6    33   1
    33     6    34   1
    34    10    35   1
    35    11    36   1
    36    14    37   1
    37    14    38   1
    38    18    39   1
    39    19    40   1
    40    22    41   1
    41    22    42   1
    42    23    43   1
    43    24    44   1
    44    24    45   1
    45    24    46   1
    46    25    47   1
    47    25    48   1
    48    25    49   1
@<TRIPOS>SUBSTRUCTURE
     1  MOL      2

