@<TRIPOS>MOLECULE
1a30_ligand_031
    49    48
SMALL
GAST_HUCK
****
This file was generated by PARSER (from files_GN.cpp)

@<TRIPOS>ATOM
      1 N          12.7437   24.3384    4.2239 N.4         1 MOL       0.2380
      2 CA         13.3482   24.0596    5.5396 C.3         1 MOL       0.0665
      3 C          13.8378   22.6873    5.6048 C.2         1 MOL       0.2269
      4 O          13.2039   21.7978    5.0421 O.2         1 MOL      -0.3907
      5 CB         12.3951   24.4598    6.7148 C.3         1 MOL       0.0194
      6 CG         11.4545   23.3835    7.3275 C.3         1 MOL       0.0075
      7 CD         10.7144   22.5616    6.3528 C.2         1 MOL       0.0351
      8 OE1         9.9642   23.1430    5.3913 O.co2       1 MOL      -0.5690
      9 OE2        10.7184   21.2142    6.4593 O.co2       1 MOL      -0.5690
     10 N          14.9873   22.4127    6.2045 N.am        1 MOL      -0.2595
     11 CA         15.6495   21.1332    6.2888 C.3         1 MOL       0.1424
     12 C          15.7515   20.5088    4.9631 C.2         1 MOL       0.2051
     13 O          15.9156   21.2512    4.0040 O.2         1 MOL      -0.3943
     14 CB         15.0302   20.2453    7.4173 C.3         1 MOL       0.0406
     15 CG         14.8220   20.9613    8.6900 C.2         1 MOL       0.0393
     16 OD1        13.5785   21.0943    9.2125 O.co2       1 MOL      -0.5688
     17 OD2        15.8815   21.3666    9.4404 O.co2       1 MOL      -0.5688
     18 N          15.6708   19.1909    4.7670 N.am        1 MOL      -0.2694
     19 CA         15.7378   18.5166    3.4979 C.3         1 MOL       0.0946
     20 C          14.8681   17.3167    3.4963 C.2         1 MOL       0.0601
     21 O          13.7283   17.3147    2.7673 O.co2       1 MOL      -0.5666
     22 CB         17.1937   18.2248    3.0036 C.3         1 MOL      -0.0156
     23 CG         18.2492   17.5257    3.9271 C.3         1 MOL      -0.0431
     24 CD1        18.4408   18.1896    5.3163 C.3         1 MOL      -0.0625
     25 CD2        18.0422   15.9934    4.0767 C.3         1 MOL      -0.0625
     26 OXT        14.9579   16.3846    4.4758 O.co2       1 MOL      -0.5666
     27 H1         12.4032   25.3048    4.1987 H           1 MOL       0.2015
     28 H2         11.9604   23.7018    4.0592 H           1 MOL       0.2015
     29 H3         13.4488   24.2171    3.4869 H           1 MOL       0.2015
     30 H4         14.2072   24.7372    5.5848 H           1 MOL       0.1099
     31 H5         11.7804   25.3045    6.3910 H           1 MOL       0.0363
     32 H6         13.0173   24.8314    7.5350 H           1 MOL       0.0363
     33 H7         10.7198   23.8807    7.9682 H           1 MOL       0.0434
     34 H8         12.0481   22.7252    7.9629 H           1 MOL       0.0434
     35 H9         15.4570   23.1615    6.6091 H           1 MOL       0.1886
     36 H10        16.6793   21.3495    6.5987 H           1 MOL       0.0819
     37 H11        15.6890   19.3987    7.6224 H           1 MOL       0.0478
     38 H12        14.0729   19.8460    7.0732 H           1 MOL       0.0478
     39 H13        15.5418   18.6366    5.5505 H           1 MOL       0.1875
     40 H14        15.2963   19.1975    2.7543 H           1 MOL       0.0726
     41 H15        17.6260   19.1795    2.6963 H           1 MOL       0.0308
     42 H16        17.1160   17.6367    2.0838 H           1 MOL       0.0308
     43 H17        19.2113   17.6387    3.4096 H           1 MOL       0.0297
     44 H18        19.3266   17.7827    5.8061 H           1 MOL       0.0232
     45 H19        17.5812   18.0022    5.9590 H           1 MOL       0.0232
     46 H20        18.5788   19.2647    5.2126 H           1 MOL       0.0232
     47 H21        17.8636   15.5303    3.1045 H           1 MOL       0.0232
     48 H22        17.1990   15.7761    4.7313 H           1 MOL       0.0232
     49 H23        18.9373   15.5355    4.5090 H           1 MOL       0.0232
@<TRIPOS>BOND
     1     3     2   1
     2     2     5   1
     3     2     1   1
     4     5     6   1
     5     6     7   1
     6     7     8  ar
     7     7     9  ar
     8     3     4   2
     9    12    11   1
    10    11    14   1
    11    11    10   1
    12    14    15   1
    13    15    16  ar
    14    15    17  ar
    15    12    13   2
    16    19    20   1
    17    19    22   1
    18    18    19   1
    19    22    23   1
    20    23    25   1
    21    23    24   1
    22    20    26  ar
    23    20    21  ar
    24    10     3  am
    25    12    18  am
    26     1    27   1
    27     1    28   1
    28     1    29   1
    29     2    30   1
    30     5    31   1
    31     5    32   1
    32     6    33   1
    33     6    34   1
    34    10    35   1
    35    11    36   1
    36    14    37   1
    37    14    38   1
    38    18    39   1
    39    19    40   1
    40    22    41   1
    41    22    42   1
    42    23    43   1
    43    24    44   1
    44    24    45   1
    45    24    46   1
    46    25    47   1
    47    25    48   1
    48    25    49   1
@<TRIPOS>SUBSTRUCTURE
     1  MOL      2

