@<TRIPOS>MOLECULE
1a30_ligand_013
    49    48
SMALL
GAST_HUCK
****
This file was generated by PARSER (from files_GN.cpp)

@<TRIPOS>ATOM
      1 N          14.5175   24.3972    4.7564 N.4         1 MOL       0.2380
      2 CA         13.2423   23.6704    4.6618 C.3         1 MOL       0.0665
      3 C          12.6937   23.3968    5.9744 C.2         1 MOL       0.2269
      4 O          11.4709   23.3115    6.0648 O.2         1 MOL      -0.3907
      5 CB         13.4292   22.4112    3.7545 C.3         1 MOL       0.0194
      6 CG         12.4400   21.2335    4.0108 C.3         1 MOL       0.0075
      7 CD         12.4708   20.7545    5.4117 C.2         1 MOL       0.0351
      8 OE1        11.3397   20.6015    6.1380 O.co2       1 MOL      -0.5690
      9 OE2        13.6559   20.5558    6.0390 O.co2       1 MOL      -0.5690
     10 N          13.4771   23.1232    7.0022 N.am        1 MOL      -0.2595
     11 CA         13.0602   22.6819    8.3013 C.3         1 MOL       0.1424
     12 C          12.2621   23.6980    8.9896 C.2         1 MOL       0.2051
     13 O          12.7416   24.3404    9.9239 O.2         1 MOL      -0.3943
     14 CB         14.3251   22.2248    9.0827 C.3         1 MOL       0.0406
     15 CG         14.0141   21.4005   10.2730 C.2         1 MOL       0.0393
     16 OD1        12.8620   21.5780   10.9624 O.co2       1 MOL      -0.5688
     17 OD2        14.8845   20.4464   10.6993 O.co2       1 MOL      -0.5688
     18 N          11.0515   23.9903    8.5322 N.am        1 MOL      -0.2694
     19 CA         10.2147   25.0996    8.9064 C.3         1 MOL       0.0946
     20 C           8.8277   24.5916    8.9952 C.2         1 MOL       0.0601
     21 O           8.0690   24.8304   10.0924 O.co2       1 MOL      -0.5666
     22 CB         10.3791   26.2578    7.8721 C.3         1 MOL      -0.0156
     23 CG          9.5443   27.5697    8.0361 C.3         1 MOL      -0.0431
     24 CD1         8.1000   27.4896    7.4716 C.3         1 MOL      -0.0625
     25 CD2         9.5465   28.1163    9.4868 C.3         1 MOL      -0.0625
     26 OXT         8.2815   23.8854    7.9753 O.co2       1 MOL      -0.5666
     27 H1         14.8109   24.6995    3.8273 H           1 MOL       0.2015
     28 H2         15.2476   23.7976    5.1414 H           1 MOL       0.2015
     29 H3         14.4286   25.2208    5.3533 H           1 MOL       0.2015
     30 H4         12.5515   24.3437    4.1225 H           1 MOL       0.1099
     31 H5         14.4636   22.0383    3.8280 H           1 MOL       0.0363
     32 H6         13.2832   22.7113    2.7026 H           1 MOL       0.0363
     33 H7         12.7127   20.3851    3.3705 H           1 MOL       0.0434
     34 H8         11.4298   21.5485    3.7376 H           1 MOL       0.0434
     35 H9         14.4319   23.1971    6.8486 H           1 MOL       0.1886
     36 H10        12.4466   21.7897    8.1621 H           1 MOL       0.0819
     37 H11        14.9218   23.0866    9.4056 H           1 MOL       0.0478
     38 H12        14.9636   21.6215    8.4229 H           1 MOL       0.0478
     39 H13        10.7398   23.4670    7.7939 H           1 MOL       0.1875
     40 H14        10.4967   25.4649    9.8938 H           1 MOL       0.0726
     41 H15        10.1809   25.8506    6.8714 H           1 MOL       0.0308
     42 H16        11.4305   26.5413    7.8885 H           1 MOL       0.0308
     43 H17        10.0494   28.3225    7.4259 H           1 MOL       0.0297
     44 H18         7.6555   28.4911    7.4299 H           1 MOL       0.0232
     45 H19         7.4570   26.8683    8.0987 H           1 MOL       0.0232
     46 H20         8.1061   27.0812    6.4591 H           1 MOL       0.0232
     47 H21        10.5667   28.1906    9.8681 H           1 MOL       0.0232
     48 H22         8.9643   27.4686   10.1440 H           1 MOL       0.0232
     49 H23         9.1014   29.1173    9.5158 H           1 MOL       0.0232
@<TRIPOS>BOND
     1     3     2   1
     2     2     5   1
     3     2     1   1
     4     5     6   1
     5     6     7   1
     6     7     8  ar
     7     7     9  ar
     8     3     4   2
     9    12    11   1
    10    11    14   1
    11    11    10   1
    12    14    15   1
    13    15    16  ar
    14    15    17  ar
    15    12    13   2
    16    19    20   1
    17    19    22   1
    18    18    19   1
    19    22    23   1
    20    23    25   1
    21    23    24   1
    22    20    26  ar
    23    20    21  ar
    24    10     3  am
    25    12    18  am
    26     1    27   1
    27     1    28   1
    28     1    29   1
    29     2    30   1
    30     5    31   1
    31     5    32   1
    32     6    33   1
    33     6    34   1
    34    10    35   1
    35    11    36   1
    36    14    37   1
    37    14    38   1
    38    18    39   1
    39    19    40   1
    40    22    41   1
    41    22    42   1
    42    23    43   1
    43    24    44   1
    44    24    45   1
    45    24    46   1
    46    25    47   1
    47    25    48   1
    48    25    49   1
@<TRIPOS>SUBSTRUCTURE
     1  MOL      2

