@<TRIPOS>MOLECULE
1a30_ligand_092
    49    48
SMALL
GAST_HUCK
****
This file was generated by PARSER (from files_GN.cpp)

@<TRIPOS>ATOM
      1 N          14.3335   24.8398    4.5768 N.4         1 MOL       0.2380
      2 CA         13.0337   24.4894    5.1787 C.3         1 MOL       0.0665
      3 C          13.0640   23.0856    5.5711 C.2         1 MOL       0.2269
      4 O          12.8607   22.7973    6.7479 O.2         1 MOL      -0.3907
      5 CB         11.8496   24.9290    4.2394 C.3         1 MOL       0.0194
      6 CG         10.6845   23.9346    3.9600 C.3         1 MOL       0.0075
      7 CD         10.1387   23.3010    5.1702 C.2         1 MOL       0.0351
      8 OE1         9.5808   24.0425    6.1547 O.co2       1 MOL      -0.5690
      9 OE2        10.2187   21.9555    5.3322 O.co2       1 MOL      -0.5690
     10 N          13.3150   22.1386    4.6752 N.am        1 MOL      -0.2595
     11 CA         13.3524   20.7202    4.8979 C.3         1 MOL       0.1424
     12 C          14.2097   20.3635    6.0303 C.2         1 MOL       0.2051
     13 O          13.6853   19.8897    7.0295 O.2         1 MOL      -0.3943
     14 CB         13.7387   19.9544    3.5988 C.3         1 MOL       0.0406
     15 CG         15.0648   20.2801    3.0417 C.2         1 MOL       0.0393
     16 OD1        15.7473   19.3686    2.3112 O.co2       1 MOL      -0.5688
     17 OD2        15.6311   21.4822    3.2793 O.co2       1 MOL      -0.5688
     18 N          15.5076   20.6483    5.9887 N.am        1 MOL      -0.2694
     19 CA         16.5364   20.5325    6.9870 C.3         1 MOL       0.0946
     20 C          16.8264   19.1738    7.5199 C.2         1 MOL       0.0601
     21 O          16.0282   18.5880    8.4449 O.co2       1 MOL      -0.5666
     22 CB         16.2018   21.5490    8.1181 C.3         1 MOL      -0.0156
     23 CG         17.4035   22.0692    8.9730 C.3         1 MOL      -0.0431
     24 CD1        18.7751   21.9298    8.2433 C.3         1 MOL      -0.0625
     25 CD2        17.1571   23.5449    9.3905 C.3         1 MOL      -0.0625
     26 OXT        17.9540   18.5173    7.1435 O.co2       1 MOL      -0.5666
     27 H1         14.3871   25.8462    4.4335 H           1 MOL       0.2015
     28 H2         14.4305   24.3762    3.6728 H           1 MOL       0.2015
     29 H3         15.0993   24.5519    5.1925 H           1 MOL       0.2015
     30 H4         12.9726   25.1022    6.0873 H           1 MOL       0.1099
     31 H5         12.2552   25.2124    3.2664 H           1 MOL       0.0363
     32 H6         11.4111   25.8429    4.6525 H           1 MOL       0.0363
     33 H7         11.0310   23.1721    3.2608 H           1 MOL       0.0434
     34 H8          9.8723   24.4801    3.4725 H           1 MOL       0.0434
     35 H9         13.4509   22.4400    3.7610 H           1 MOL       0.1886
     36 H10        12.3174   20.4215    5.1160 H           1 MOL       0.0819
     37 H11        12.9945   20.1571    2.8208 H           1 MOL       0.0478
     38 H12        13.6972   18.8823    3.8099 H           1 MOL       0.0478
     39 H13        15.8052   21.0729    5.1720 H           1 MOL       0.1875
     40 H14        17.4438   20.8808    6.4884 H           1 MOL       0.0726
     41 H15        15.4699   21.0806    8.7900 H           1 MOL       0.0308
     42 H16        15.7035   22.4208    7.6803 H           1 MOL       0.0308
     43 H17        17.4646   21.4824    9.8936 H           1 MOL       0.0297
     44 H18        19.5737   22.3933    8.8280 H           1 MOL       0.0232
     45 H19        18.7382   22.4054    7.2600 H           1 MOL       0.0232
     46 H20        19.0347   20.8770    8.1168 H           1 MOL       0.0232
     47 H21        16.2543   23.6200   10.0009 H           1 MOL       0.0232
     48 H22        17.0197   24.1799    8.5149 H           1 MOL       0.0232
     49 H23        17.9966   23.9304    9.9751 H           1 MOL       0.0232
@<TRIPOS>BOND
     1     3     2   1
     2     2     5   1
     3     2     1   1
     4     5     6   1
     5     6     7   1
     6     7     8  ar
     7     7     9  ar
     8     3     4   2
     9    12    11   1
    10    11    14   1
    11    11    10   1
    12    14    15   1
    13    15    16  ar
    14    15    17  ar
    15    12    13   2
    16    19    20   1
    17    19    22   1
    18    18    19   1
    19    22    23   1
    20    23    25   1
    21    23    24   1
    22    20    26  ar
    23    20    21  ar
    24    10     3  am
    25    12    18  am
    26     1    27   1
    27     1    28   1
    28     1    29   1
    29     2    30   1
    30     5    31   1
    31     5    32   1
    32     6    33   1
    33     6    34   1
    34    10    35   1
    35    11    36   1
    36    14    37   1
    37    14    38   1
    38    18    39   1
    39    19    40   1
    40    22    41   1
    41    22    42   1
    42    23    43   1
    43    24    44   1
    44    24    45   1
    45    24    46   1
    46    25    47   1
    47    25    48   1
    48    25    49   1
@<TRIPOS>SUBSTRUCTURE
     1  MOL      2

