@<TRIPOS>MOLECULE
1a30_ligand_085
    49    48
SMALL
GAST_HUCK
****
This file was generated by PARSER (from files_GN.cpp)

@<TRIPOS>ATOM
      1 N          17.0752   16.1927    4.9409 N.4         1 MOL       0.2380
      2 CA         17.2717   17.0215    3.7346 C.3         1 MOL       0.0665
      3 C          17.5653   18.4068    4.0695 C.2         1 MOL       0.2269
      4 O          18.4545   18.9768    3.4450 O.2         1 MOL      -0.3907
      5 CB         16.1267   16.8851    2.6894 C.3         1 MOL       0.0194
      6 CG         14.7972   17.6616    2.9215 C.3         1 MOL       0.0075
      7 CD         14.1526   17.4042    4.2255 C.2         1 MOL       0.0351
      8 OE1        14.0660   16.1435    4.7129 O.co2       1 MOL      -0.5690
      9 OE2        13.4837   18.4009    4.8551 O.co2       1 MOL      -0.5690
     10 N          16.9244   19.0077    5.0666 N.am        1 MOL      -0.2595
     11 CA         17.2564   20.2752    5.6640 C.3         1 MOL       0.1424
     12 C          17.9417   19.9779    6.9152 C.2         1 MOL       0.2051
     13 O          19.1738   20.0029    6.9333 O.2         1 MOL      -0.3943
     14 CB         16.0210   21.2361    5.7305 C.3         1 MOL       0.0406
     15 CG         14.7389   20.6468    6.1675 C.2         1 MOL       0.0393
     16 OD1        14.5992   20.1211    7.4043 O.co2       1 MOL      -0.5688
     17 OD2        13.6316   20.7782    5.4091 O.co2       1 MOL      -0.5688
     18 N          17.2830   19.5954    8.0008 N.am        1 MOL      -0.2694
     19 CA         17.8201   19.0231    9.2018 C.3         1 MOL       0.0946
     20 C          16.8427   17.9894    9.6199 C.2         1 MOL       0.0601
     21 O          17.1627   16.6696    9.5719 O.co2       1 MOL      -0.5666
     22 CB         18.0317   20.0827   10.3331 C.3         1 MOL      -0.0156
     23 CG         19.2805   21.0297   10.2422 C.3         1 MOL      -0.0431
     24 CD1        20.6007   20.2892    9.8988 C.3         1 MOL      -0.0625
     25 CD2        19.0764   22.2609    9.3160 C.3         1 MOL      -0.0625
     26 OXT        15.5889   18.3267   10.0188 O.co2       1 MOL      -0.5666
     27 H1         16.9834   15.2128    4.6644 H           1 MOL       0.2015
     28 H2         16.2366   16.4821    5.4457 H           1 MOL       0.2015
     29 H3         17.8872   16.2848    5.5578 H           1 MOL       0.2015
     30 H4         18.1675   16.5981    3.2667 H           1 MOL       0.1099
     31 H5         15.8954   15.8201    2.5937 H           1 MOL       0.0363
     32 H6         16.5218   17.2027    1.7195 H           1 MOL       0.0363
     33 H7         14.0976   17.3649    2.1335 H           1 MOL       0.0434
     34 H8         14.9771   18.7345    2.8008 H           1 MOL       0.0434
     35 H9         16.2257   18.4949    5.5146 H           1 MOL       0.1886
     36 H10        17.9855   20.8047    5.0379 H           1 MOL       0.0819
     37 H11        15.8664   21.6384    4.7212 H           1 MOL       0.0478
     38 H12        16.2501   22.0870    6.3778 H           1 MOL       0.0478
     39 H13        16.3134   19.6122    7.9514 H           1 MOL       0.1875
     40 H14        18.7698   18.5215    9.0265 H           1 MOL       0.0726
     41 H15        18.1205   19.5470   11.2888 H           1 MOL       0.0308
     42 H16        17.1300   20.7030   10.4105 H           1 MOL       0.0308
     43 H17        19.4250   21.4371   11.2472 H           1 MOL       0.0297
     44 H18        21.4622   20.9549   10.0491 H           1 MOL       0.0232
     45 H19        20.5968   19.9609    8.8545 H           1 MOL       0.0232
     46 H20        20.7280   19.4169   10.5504 H           1 MOL       0.0232
     47 H21        18.1650   22.8056    9.5851 H           1 MOL       0.0232
     48 H22        19.0124   21.9660    8.2641 H           1 MOL       0.0232
     49 H23        19.9263   22.9486    9.4248 H           1 MOL       0.0232
@<TRIPOS>BOND
     1     3     2   1
     2     2     5   1
     3     2     1   1
     4     5     6   1
     5     6     7   1
     6     7     8  ar
     7     7     9  ar
     8     3     4   2
     9    12    11   1
    10    11    14   1
    11    11    10   1
    12    14    15   1
    13    15    16  ar
    14    15    17  ar
    15    12    13   2
    16    19    20   1
    17    19    22   1
    18    18    19   1
    19    22    23   1
    20    23    25   1
    21    23    24   1
    22    20    26  ar
    23    20    21  ar
    24    10     3  am
    25    12    18  am
    26     1    27   1
    27     1    28   1
    28     1    29   1
    29     2    30   1
    30     5    31   1
    31     5    32   1
    32     6    33   1
    33     6    34   1
    34    10    35   1
    35    11    36   1
    36    14    37   1
    37    14    38   1
    38    18    39   1
    39    19    40   1
    40    22    41   1
    41    22    42   1
    42    23    43   1
    43    24    44   1
    44    24    45   1
    45    24    46   1
    46    25    47   1
    47    25    48   1
    48    25    49   1
@<TRIPOS>SUBSTRUCTURE
     1  MOL      2

