@<TRIPOS>MOLECULE
1a30_ligand_028
    49    48
SMALL
GAST_HUCK
****
This file was generated by PARSER (from files_GN.cpp)

@<TRIPOS>ATOM
      1 N          14.9523   24.2671    4.6436 N.4         1 MOL       0.2380
      2 CA         14.5432   23.2967    5.6801 C.3         1 MOL       0.0665
      3 C          13.0919   23.3436    5.8210 C.2         1 MOL       0.2269
      4 O          12.4620   22.3284    5.5370 O.2         1 MOL      -0.3907
      5 CB         15.3971   23.4824    6.9796 C.3         1 MOL       0.0194
      6 CG         14.6271   23.6917    8.3213 C.3         1 MOL       0.0075
      7 CD         15.4130   23.3703    9.5217 C.2         1 MOL       0.0351
      8 OE1        16.7209   23.7107    9.5864 O.co2       1 MOL      -0.5690
      9 OE2        14.7543   23.2061   10.6962 O.co2       1 MOL      -0.5690
     10 N          12.4782   24.4468    6.2273 N.am        1 MOL      -0.2595
     11 CA         11.0709   24.7172    6.3888 C.3         1 MOL       0.1424
     12 C          10.6292   24.7658    7.7871 C.2         1 MOL       0.2051
     13 O          11.4317   24.5466    8.6909 O.2         1 MOL      -0.3943
     14 CB         10.0804   23.9345    5.4621 C.3         1 MOL       0.0406
     15 CG         10.1429   22.4596    5.5088 C.2         1 MOL       0.0393
     16 OD1        10.3371   21.7844    6.6688 O.co2       1 MOL      -0.5688
     17 OD2        10.1765   21.7483    4.3600 O.co2       1 MOL      -0.5688
     18 N           9.3655   25.0791    8.0611 N.am        1 MOL      -0.2694
     19 CA          8.7347   25.2036    9.3445 C.3         1 MOL       0.0946
     20 C           7.3934   24.5815    9.2939 C.2         1 MOL       0.0601
     21 O           7.0981   23.5051   10.0588 O.co2       1 MOL      -0.5666
     22 CB          8.7118   26.6715    9.8900 C.3         1 MOL      -0.0156
     23 CG          8.5640   27.9083    8.9367 C.3         1 MOL      -0.0431
     24 CD1         9.8656   28.2208    8.1413 C.3         1 MOL      -0.0625
     25 CD2         7.3335   27.8682    7.9999 C.3         1 MOL      -0.0625
     26 OXT         6.3882   25.1346    8.5755 O.co2       1 MOL      -0.5666
     27 H1         15.9380   24.1246    4.4219 H           1 MOL       0.2015
     28 H2         14.8293   25.2227    4.9947 H           1 MOL       0.2015
     29 H3         14.4027   24.1339    3.7961 H           1 MOL       0.2015
     30 H4         14.8234   22.3247    5.2563 H           1 MOL       0.1099
     31 H5         16.0820   24.3337    6.8652 H           1 MOL       0.0363
     32 H6         16.0355   22.5997    7.0997 H           1 MOL       0.0363
     33 H7         13.7341   23.0556    8.3204 H           1 MOL       0.0434
     34 H8         14.3079   24.7388    8.3898 H           1 MOL       0.0434
     35 H9         13.0689   25.1753    6.4601 H           1 MOL       0.1886
     36 H10        10.9986   25.7552    6.0392 H           1 MOL       0.0819
     37 H11        10.2489   24.2575    4.4332 H           1 MOL       0.0478
     38 H12         9.0532   24.2140    5.7125 H           1 MOL       0.0478
     39 H13         8.7943   25.2449    7.3005 H           1 MOL       0.1875
     40 H14         9.3005   24.6248   10.0810 H           1 MOL       0.0726
     41 H15         9.6390   26.8231   10.4453 H           1 MOL       0.0308
     42 H16         7.9175   26.7538   10.6330 H           1 MOL       0.0308
     43 H17         8.4160   28.7751    9.5937 H           1 MOL       0.0297
     44 H18         9.8299   29.2396    7.7408 H           1 MOL       0.0232
     45 H19         9.9880   27.5379    7.3034 H           1 MOL       0.0232
     46 H20        10.7434   28.1520    8.7903 H           1 MOL       0.0232
     47 H21         6.4244   27.6884    8.5798 H           1 MOL       0.0232
     48 H22         7.4317   27.0854    7.2494 H           1 MOL       0.0232
     49 H23         7.2141   28.8268    7.4827 H           1 MOL       0.0232
@<TRIPOS>BOND
     1     3     2   1
     2     2     5   1
     3     2     1   1
     4     5     6   1
     5     6     7   1
     6     7     8  ar
     7     7     9  ar
     8     3     4   2
     9    12    11   1
    10    11    14   1
    11    11    10   1
    12    14    15   1
    13    15    16  ar
    14    15    17  ar
    15    12    13   2
    16    19    20   1
    17    19    22   1
    18    18    19   1
    19    22    23   1
    20    23    25   1
    21    23    24   1
    22    20    26  ar
    23    20    21  ar
    24    10     3  am
    25    12    18  am
    26     1    27   1
    27     1    28   1
    28     1    29   1
    29     2    30   1
    30     5    31   1
    31     5    32   1
    32     6    33   1
    33     6    34   1
    34    10    35   1
    35    11    36   1
    36    14    37   1
    37    14    38   1
    38    18    39   1
    39    19    40   1
    40    22    41   1
    41    22    42   1
    42    23    43   1
    43    24    44   1
    44    24    45   1
    45    24    46   1
    46    25    47   1
    47    25    48   1
    48    25    49   1
@<TRIPOS>SUBSTRUCTURE
     1  MOL      2

