@<TRIPOS>MOLECULE
1a30_ligand_066
    49    48
SMALL
GAST_HUCK
****
This file was generated by PARSER (from files_GN.cpp)

@<TRIPOS>ATOM
      1 N           8.1035   24.6297    4.4474 N.4         1 MOL       0.2380
      2 CA          7.5682   25.9002    3.9183 C.3         1 MOL       0.0665
      3 C           7.2891   26.8150    5.0189 C.2         1 MOL       0.2269
      4 O           7.7622   27.9472    4.9940 O.2         1 MOL      -0.3907
      5 CB          6.3188   25.6368    3.0128 C.3         1 MOL       0.0194
      6 CG          6.6432   25.3824    1.5128 C.3         1 MOL       0.0075
      7 CD          7.5499   24.2403    1.2902 C.2         1 MOL       0.0351
      8 OE1         8.8775   24.4643    1.1777 O.co2       1 MOL      -0.5690
      9 OE2         7.0654   23.0975    0.7541 O.co2       1 MOL      -0.5690
     10 N           6.5136   26.4368    6.0235 N.am        1 MOL      -0.2595
     11 CA          6.0098   27.2308    7.1130 C.3         1 MOL       0.1424
     12 C           4.8251   28.0229    6.7413 C.2         1 MOL       0.2051
     13 O           4.2479   27.7754    5.6887 O.2         1 MOL      -0.3943
     14 CB          7.1200   28.0770    7.8353 C.3         1 MOL       0.0406
     15 CG          8.5078   27.6412    7.6769 C.2         1 MOL       0.0393
     16 OD1         8.8176   26.3355    7.4002 O.co2       1 MOL      -0.5688
     17 OD2         9.4949   28.5525    7.5583 O.co2       1 MOL      -0.5688
     18 N           4.3707   28.9680    7.5593 N.am        1 MOL      -0.2694
     19 CA          3.2303   29.8452    7.3970 C.3         1 MOL       0.0946
     20 C           1.9421   29.1014    7.4415 C.2         1 MOL       0.0601
     21 O           0.9533   29.4958    8.2699 O.co2       1 MOL      -0.5666
     22 CB          3.3901   30.7678    6.1437 C.3         1 MOL      -0.0156
     23 CG          2.4597   32.0096    5.9290 C.3         1 MOL      -0.0431
     24 CD1         1.2991   31.7458    4.9159 C.3         1 MOL      -0.0625
     25 CD2         1.9428   32.6924    7.2310 C.3         1 MOL      -0.0625
     26 OXT         1.8213   27.8579    6.9229 O.co2       1 MOL      -0.5666
     27 H1          8.3765   24.0067    3.6815 H           1 MOL       0.2015
     28 H2          7.3897   24.1623    5.0110 H           1 MOL       0.2015
     29 H3          8.9189   24.8259    5.0296 H           1 MOL       0.2015
     30 H4          8.3605   26.3408    3.2973 H           1 MOL       0.1099
     31 H5          5.6610   26.5094    3.0436 H           1 MOL       0.0363
     32 H6          5.7445   24.7925    3.4022 H           1 MOL       0.0363
     33 H7          7.0870   26.2844    1.0823 H           1 MOL       0.0434
     34 H8          5.7129   25.2032    0.9688 H           1 MOL       0.0434
     35 H9          6.2324   25.5042    6.0261 H           1 MOL       0.1886
     36 H10         5.6547   26.4961    7.8472 H           1 MOL       0.0819
     37 H11         6.9123   28.0391    8.9113 H           1 MOL       0.0478
     38 H12         7.0420   29.1145    7.5188 H           1 MOL       0.0478
     39 H13         4.8949   29.1198    8.3608 H           1 MOL       0.1875
     40 H14         3.2275   30.4847    8.2807 H           1 MOL       0.0726
     41 H15         3.3485   30.1588    5.2388 H           1 MOL       0.0308
     42 H16         4.4245   31.1522    6.1939 H           1 MOL       0.0308
     43 H17         3.0868   32.7669    5.4383 H           1 MOL       0.0297
     44 H18         0.7229   32.6488    4.7579 H           1 MOL       0.0232
     45 H19         0.6200   30.9695    5.2755 H           1 MOL       0.0232
     46 H20         1.7035   31.4220    3.9627 H           1 MOL       0.0232
     47 H21         2.7502   32.7988    7.9548 H           1 MOL       0.0232
     48 H22         1.1356   32.1199    7.6796 H           1 MOL       0.0232
     49 H23         1.5591   33.6868    6.9909 H           1 MOL       0.0232
@<TRIPOS>BOND
     1     3     2   1
     2     2     5   1
     3     2     1   1
     4     5     6   1
     5     6     7   1
     6     7     8  ar
     7     7     9  ar
     8     3     4   2
     9    12    11   1
    10    11    14   1
    11    11    10   1
    12    14    15   1
    13    15    16  ar
    14    15    17  ar
    15    12    13   2
    16    19    20   1
    17    19    22   1
    18    18    19   1
    19    22    23   1
    20    23    25   1
    21    23    24   1
    22    20    26  ar
    23    20    21  ar
    24    10     3  am
    25    12    18  am
    26     1    27   1
    27     1    28   1
    28     1    29   1
    29     2    30   1
    30     5    31   1
    31     5    32   1
    32     6    33   1
    33     6    34   1
    34    10    35   1
    35    11    36   1
    36    14    37   1
    37    14    38   1
    38    18    39   1
    39    19    40   1
    40    22    41   1
    41    22    42   1
    42    23    43   1
    43    24    44   1
    44    24    45   1
    45    24    46   1
    46    25    47   1
    47    25    48   1
    48    25    49   1
@<TRIPOS>SUBSTRUCTURE
     1  MOL      2

