@<TRIPOS>MOLECULE
1a30_ligand_091
    49    48
SMALL
GAST_HUCK
****
This file was generated by PARSER (from files_GN.cpp)

@<TRIPOS>ATOM
      1 N           8.3685   26.5969    2.8961 N.4         1 MOL       0.2380
      2 CA          8.1391   26.5020    4.3512 C.3         1 MOL       0.0665
      3 C           8.8954   25.3699    4.8781 C.2         1 MOL       0.2269
      4 O           8.5029   24.2325    4.6426 O.2         1 MOL      -0.3907
      5 CB          6.6227   26.5135    4.7161 C.3         1 MOL       0.0194
      6 CG          5.6888   25.4863    4.0037 C.3         1 MOL       0.0075
      7 CD          5.4218   25.7898    2.5851 C.2         1 MOL       0.0351
      8 OE1         5.7248   24.8989    1.6134 O.co2       1 MOL      -0.5690
      9 OE2         4.7421   26.9156    2.2445 O.co2       1 MOL      -0.5690
     10 N          10.0220   25.5760    5.5670 N.am        1 MOL      -0.2595
     11 CA         10.9248   24.6107    6.1372 C.3         1 MOL       0.1424
     12 C          11.5713   23.7657    5.1266 C.2         1 MOL       0.2051
     13 O          12.7238   24.0186    4.7998 O.2         1 MOL      -0.3943
     14 CB         10.2581   23.8398    7.3254 C.3         1 MOL       0.0406
     15 CG         10.8341   22.5033    7.5601 C.2         1 MOL       0.0393
     16 OD1        10.4606   21.5146    6.7071 O.co2       1 MOL      -0.5688
     17 OD2        12.0410   22.4035    8.1779 O.co2       1 MOL      -0.5688
     18 N          10.9216   22.7431    4.5796 N.am        1 MOL      -0.2694
     19 CA         11.3335   21.8854    3.5020 C.3         1 MOL       0.0946
     20 C          12.4732   20.9973    3.8457 C.2         1 MOL       0.0601
     21 O          12.7846   20.6941    5.1294 O.co2       1 MOL      -0.5666
     22 CB         11.6149   22.6428    2.1495 C.3         1 MOL      -0.0156
     23 CG         10.9106   24.0451    1.9758 C.3         1 MOL      -0.0431
     24 CD1        11.9595   25.1940    1.8349 C.3         1 MOL      -0.0625
     25 CD2         9.8898   24.0682    0.7975 C.3         1 MOL      -0.0625
     26 OXT        13.2074   20.4069    2.8746 O.co2       1 MOL      -0.5666
     27 H1          7.7803   27.3436    2.5005 H           1 MOL       0.2015
     28 H2          8.1310   25.7004    2.4428 H           1 MOL       0.2015
     29 H3          9.3585   26.8118    2.7125 H           1 MOL       0.2015
     30 H4          8.5521   27.4341    4.7657 H           1 MOL       0.1099
     31 H5          6.2310   27.5164    4.5239 H           1 MOL       0.0363
     32 H6          6.5315   26.3475    5.7898 H           1 MOL       0.0363
     33 H7          4.7261   25.4706    4.5213 H           1 MOL       0.0434
     34 H8          6.1086   24.4830    4.0850 H           1 MOL       0.0434
     35 H9         10.2882   26.5071    5.6899 H           1 MOL       0.1886
     36 H10        11.7075   25.2183    6.6078 H           1 MOL       0.0819
     37 H11         9.1778   23.7273    7.1529 H           1 MOL       0.0478
     38 H12        10.3709   24.4222    8.2556 H           1 MOL       0.0478
     39 H13        10.0218   22.5918    4.8956 H           1 MOL       0.1875
     40 H14        10.4846   21.2217    3.3087 H           1 MOL       0.0726
     41 H15        11.3006   21.9797    1.3189 H           1 MOL       0.0308
     42 H16        12.7146   22.7491    2.0448 H           1 MOL       0.0308
     43 H17        10.3449   24.2679    2.8896 H           1 MOL       0.0297
     44 H18        11.4394   26.1546    1.8053 H           1 MOL       0.0232
     45 H19        12.5566   25.0635    0.9182 H           1 MOL       0.0232
     46 H20        12.6197   25.1862    2.7141 H           1 MOL       0.0232
     47 H21         9.1863   23.2328    0.9056 H           1 MOL       0.0232
     48 H22        10.4179   23.9810   -0.1607 H           1 MOL       0.0232
     49 H23         9.3263   25.0031    0.8223 H           1 MOL       0.0232
@<TRIPOS>BOND
     1     3     2   1
     2     2     5   1
     3     2     1   1
     4     5     6   1
     5     6     7   1
     6     7     8  ar
     7     7     9  ar
     8     3     4   2
     9    12    11   1
    10    11    14   1
    11    11    10   1
    12    14    15   1
    13    15    16  ar
    14    15    17  ar
    15    12    13   2
    16    19    20   1
    17    19    22   1
    18    18    19   1
    19    22    23   1
    20    23    25   1
    21    23    24   1
    22    20    26  ar
    23    20    21  ar
    24    10     3  am
    25    12    18  am
    26     1    27   1
    27     1    28   1
    28     1    29   1
    29     2    30   1
    30     5    31   1
    31     5    32   1
    32     6    33   1
    33     6    34   1
    34    10    35   1
    35    11    36   1
    36    14    37   1
    37    14    38   1
    38    18    39   1
    39    19    40   1
    40    22    41   1
    41    22    42   1
    42    23    43   1
    43    24    44   1
    44    24    45   1
    45    24    46   1
    46    25    47   1
    47    25    48   1
    48    25    49   1
@<TRIPOS>SUBSTRUCTURE
     1  MOL      2

