@<TRIPOS>MOLECULE
1a30_ligand_000
    49    48
SMALL
GAST_HUCK
****
This file was generated by PARSER (from files_GN.cpp)

@<TRIPOS>ATOM
      1 N          14.2254   24.4831    4.7377 N.4         1 MOL       0.2380
      2 CA         14.7477   23.4189    5.6110 C.3         1 MOL       0.0665
      3 C          14.7231   22.1359    4.9219 C.2         1 MOL       0.2269
      4 O          13.6511   21.7004    4.5228 O.2         1 MOL      -0.3907
      5 CB         14.0371   23.4226    7.0130 C.3         1 MOL       0.0194
      6 CG         12.9290   22.3651    7.3157 C.3         1 MOL       0.0075
      7 CD         11.8218   22.2413    6.3479 C.2         1 MOL       0.0351
      8 OE1        11.5702   23.1765    5.3990 O.co2       1 MOL      -0.5690
      9 OE2        11.0384   21.1306    6.3761 O.co2       1 MOL      -0.5690
     10 N          15.8299   21.4024    4.8364 N.am        1 MOL      -0.2595
     11 CA         15.9085   20.0287    4.4295 C.3         1 MOL       0.1424
     12 C          17.0868   19.4483    5.0720 C.2         1 MOL       0.2051
     13 O          18.1946   19.7808    4.6690 O.2         1 MOL      -0.3943
     14 CB         15.9230   19.8853    2.8705 C.3         1 MOL       0.0406
     15 CG         15.1942   18.6895    2.4014 C.2         1 MOL       0.0393
     16 OD1        15.8155   17.4856    2.3341 O.co2       1 MOL      -0.5688
     17 OD2        13.8425   18.7286    2.2944 O.co2       1 MOL      -0.5688
     18 N          16.9570   18.6689    6.1399 N.am        1 MOL      -0.2694
     19 CA         18.0039   18.1692    6.9767 C.3         1 MOL       0.0946
     20 C          18.5723   16.9645    6.3339 C.2         1 MOL       0.0601
     21 O          18.0617   15.7396    6.5897 O.co2       1 MOL      -0.5666
     22 CB         17.5172   17.9089    8.4335 C.3         1 MOL      -0.0156
     23 CG         16.8598   19.1414    9.1554 C.3         1 MOL      -0.0431
     24 CD1        15.3089   19.1532    9.0339 C.3         1 MOL      -0.0625
     25 CD2        17.2720   19.2218   10.6474 C.3         1 MOL      -0.0625
     26 OXT        19.2452   17.1106    5.1676 O.co2       1 MOL      -0.5666
     27 H1         14.4249   25.3940    5.1665 H           1 MOL       0.2015
     28 H2         13.2165   24.3680    4.6081 H           1 MOL       0.2015
     29 H3         14.6889   24.4558    3.8242 H           1 MOL       0.2015
     30 H4         15.7896   23.7064    5.7824 H           1 MOL       0.1099
     31 H5         13.6226   24.4180    7.2025 H           1 MOL       0.0363
     32 H6         14.8093   23.2657    7.7665 H           1 MOL       0.0363
     33 H7         12.4757   22.6079    8.2826 H           1 MOL       0.0434
     34 H8         13.3998   21.3813    7.4266 H           1 MOL       0.0434
     35 H9         16.6408   21.8106    5.1798 H           1 MOL       0.1886
     36 H10        15.0132   19.5315    4.8072 H           1 MOL       0.0819
     37 H11        16.9499   19.8376    2.4869 H           1 MOL       0.0478
     38 H12        15.4568   20.7615    2.4063 H           1 MOL       0.0478
     39 H13        16.0514   18.4433    6.3941 H           1 MOL       0.1875
     40 H14        18.8065   18.9106    7.0487 H           1 MOL       0.0726
     41 H15        18.3943   17.5832    9.0004 H           1 MOL       0.0308
     42 H16        16.8228   17.0606    8.4448 H           1 MOL       0.0308
     43 H17        17.2272   20.0555    8.6790 H           1 MOL       0.0297
     44 H18        14.8963   20.0352    9.5216 H           1 MOL       0.0232
     45 H19        14.8775   18.2697    9.5045 H           1 MOL       0.0232
     46 H20        14.9928   19.1776    7.9929 H           1 MOL       0.0232
     47 H21        18.3493   19.3335   10.7347 H           1 MOL       0.0232
     48 H22        16.9715   18.3213   11.1746 H           1 MOL       0.0232
     49 H23        16.8085   20.0783   11.1273 H           1 MOL       0.0232
@<TRIPOS>BOND
     1     3     2   1
     2     2     5   1
     3     2     1   1
     4     5     6   1
     5     6     7   1
     6     7     8  ar
     7     7     9  ar
     8     3     4   2
     9    12    11   1
    10    11    14   1
    11    11    10   1
    12    14    15   1
    13    15    16  ar
    14    15    17  ar
    15    12    13   2
    16    19    20   1
    17    19    22   1
    18    18    19   1
    19    22    23   1
    20    23    25   1
    21    23    24   1
    22    20    26  ar
    23    20    21  ar
    24    10     3  am
    25    12    18  am
    26     1    27   1
    27     1    28   1
    28     1    29   1
    29     2    30   1
    30     5    31   1
    31     5    32   1
    32     6    33   1
    33     6    34   1
    34    10    35   1
    35    11    36   1
    36    14    37   1
    37    14    38   1
    38    18    39   1
    39    19    40   1
    40    22    41   1
    41    22    42   1
    42    23    43   1
    43    24    44   1
    44    24    45   1
    45    24    46   1
    46    25    47   1
    47    25    48   1
    48    25    49   1
@<TRIPOS>SUBSTRUCTURE
     1  MOL      2

