@<TRIPOS>MOLECULE
1a30_ligand_003
    49    48
SMALL
GAST_HUCK
****
This file was generated by PARSER (from files_GN.cpp)

@<TRIPOS>ATOM
      1 N          15.1044   24.2765    5.0224 N.4         1 MOL       0.2380
      2 CA         14.4362   22.9666    5.2108 C.3         1 MOL       0.0665
      3 C          15.1312   21.8693    4.5434 C.2         1 MOL       0.2269
      4 O          15.9226   22.0917    3.6342 O.2         1 MOL      -0.3907
      5 CB         12.9345   23.0893    4.7817 C.3         1 MOL       0.0194
      6 CG         11.9759   23.4553    5.9501 C.3         1 MOL       0.0075
      7 CD         11.6819   22.2962    6.8166 C.2         1 MOL       0.0351
      8 OE1        12.1324   22.2439    8.0912 O.co2       1 MOL      -0.5690
      9 OE2        10.9058   21.2883    6.3525 O.co2       1 MOL      -0.5690
     10 N          14.9399   20.6248    4.9738 N.am        1 MOL      -0.2595
     11 CA         15.5841   19.4058    4.5505 C.3         1 MOL       0.1424
     12 C          16.9627   19.3200    5.0355 C.2         1 MOL       0.2051
     13 O          17.8555   19.9287    4.4610 O.2         1 MOL      -0.3943
     14 CB         15.3830   19.1537    3.0176 C.3         1 MOL       0.0406
     15 CG         16.3164   18.1713    2.4155 C.2         1 MOL       0.0393
     16 OD1        17.5826   18.5601    2.1256 O.co2       1 MOL      -0.5688
     17 OD2        15.8559   17.0203    1.8651 O.co2       1 MOL      -0.5688
     18 N          17.2188   18.6057    6.1276 N.am        1 MOL      -0.2694
     19 CA         18.4799   18.4285    6.7951 C.3         1 MOL       0.0946
     20 C          18.5978   17.0278    7.2790 C.2         1 MOL       0.0601
     21 O          19.4740   16.7026    8.2650 O.co2       1 MOL      -0.5666
     22 CB         18.5888   19.4538    7.9736 C.3         1 MOL      -0.0156
     23 CG         18.5530   20.9627    7.5647 C.3         1 MOL      -0.0431
     24 CD1        18.0689   21.8479    8.7476 C.3         1 MOL      -0.0625
     25 CD2        19.9305   21.4770    7.0465 C.3         1 MOL      -0.0625
     26 OXT        17.9690   15.9923    6.6606 O.co2       1 MOL      -0.5666
     27 H1         14.6539   24.9906    5.6056 H           1 MOL       0.2015
     28 H2         15.0621   24.5651    4.0328 H           1 MOL       0.2015
     29 H3         16.0837   24.2028    5.3155 H           1 MOL       0.2015
     30 H4         14.4998   22.7621    6.2847 H           1 MOL       0.1099
     31 H5         12.5777   22.1625    4.3166 H           1 MOL       0.0363
     32 H6         12.8473   23.8645    4.0141 H           1 MOL       0.0363
     33 H7         11.0298   23.8149    5.5379 H           1 MOL       0.0434
     34 H8         12.4099   24.2659    6.5421 H           1 MOL       0.0434
     35 H9         14.2779   20.5119    5.6777 H           1 MOL       0.1886
     36 H10        15.0157   18.6063    5.0408 H           1 MOL       0.0819
     37 H11        15.4781   20.0987    2.4670 H           1 MOL       0.0478
     38 H12        14.3555   18.7968    2.8701 H           1 MOL       0.0478
     39 H13        16.4640   18.1745    6.5559 H           1 MOL       0.1875
     40 H14        19.3232   18.5769    6.1126 H           1 MOL       0.0726
     41 H15        19.5220   19.2792    8.5218 H           1 MOL       0.0308
     42 H16        17.7658   19.2488    8.6660 H           1 MOL       0.0308
     43 H17        17.8230   21.1014    6.7594 H           1 MOL       0.0297
     44 H18        18.0070   22.8955    8.4373 H           1 MOL       0.0232
     45 H19        18.7562   21.7710    9.5940 H           1 MOL       0.0232
     46 H20        17.0732   21.5341    9.0704 H           1 MOL       0.0232
     47 H21        20.2455   20.9220    6.1591 H           1 MOL       0.0232
     48 H22        20.6982   21.3655    7.8178 H           1 MOL       0.0232
     49 H23        19.8638   22.5331    6.7708 H           1 MOL       0.0232
@<TRIPOS>BOND
     1     3     2   1
     2     2     5   1
     3     2     1   1
     4     5     6   1
     5     6     7   1
     6     7     8  ar
     7     7     9  ar
     8     3     4   2
     9    12    11   1
    10    11    14   1
    11    11    10   1
    12    14    15   1
    13    15    16  ar
    14    15    17  ar
    15    12    13   2
    16    19    20   1
    17    19    22   1
    18    18    19   1
    19    22    23   1
    20    23    25   1
    21    23    24   1
    22    20    26  ar
    23    20    21  ar
    24    10     3  am
    25    12    18  am
    26     1    27   1
    27     1    28   1
    28     1    29   1
    29     2    30   1
    30     5    31   1
    31     5    32   1
    32     6    33   1
    33     6    34   1
    34    10    35   1
    35    11    36   1
    36    14    37   1
    37    14    38   1
    38    18    39   1
    39    19    40   1
    40    22    41   1
    41    22    42   1
    42    23    43   1
    43    24    44   1
    44    24    45   1
    45    24    46   1
    46    25    47   1
    47    25    48   1
    48    25    49   1
@<TRIPOS>SUBSTRUCTURE
     1  MOL      2

