@<TRIPOS>MOLECULE
1a30_ligand_056
    49    48
SMALL
GAST_HUCK
****
This file was generated by PARSER (from files_GN.cpp)

@<TRIPOS>ATOM
      1 N           1.9698   21.8982    4.0493 N.4         1 MOL       0.2380
      2 CA          3.3039   21.7987    4.6817 C.3         1 MOL       0.0665
      3 C           4.0978   22.9518    4.2801 C.2         1 MOL       0.2269
      4 O           5.0838   22.8092    3.5593 O.2         1 MOL      -0.3907
      5 CB          3.9234   20.4067    4.3476 C.3         1 MOL       0.0194
      6 CG          3.3523   19.2376    5.2017 C.3         1 MOL       0.0075
      7 CD          3.8767   17.8988    4.8684 C.2         1 MOL       0.0351
      8 OE1         4.6078   17.6721    3.7465 O.co2       1 MOL      -0.5690
      9 OE2         3.4205   16.8246    5.5553 O.co2       1 MOL      -0.5690
     10 N           3.7464   24.1569    4.7145 N.am        1 MOL      -0.2595
     11 CA          4.4387   25.3950    4.5378 C.3         1 MOL       0.1424
     12 C           4.6662   25.9937    5.8436 C.2         1 MOL       0.2051
     13 O           3.6910   26.3302    6.5071 O.2         1 MOL      -0.3943
     14 CB          3.6249   26.3524    3.6078 C.3         1 MOL       0.0406
     15 CG          3.6619   25.9798    2.1807 C.2         1 MOL       0.0393
     16 OD1         3.1133   24.8116    1.7510 O.co2       1 MOL      -0.5688
     17 OD2         4.1595   26.8306    1.2518 O.co2       1 MOL      -0.5688
     18 N           5.9042   26.2032    6.2764 N.am        1 MOL      -0.2694
     19 CA          6.3009   27.0045    7.3983 C.3         1 MOL       0.0946
     20 C           7.2352   28.0695    6.9496 C.2         1 MOL       0.0601
     21 O           7.4046   28.3664    5.6339 O.co2       1 MOL      -0.5666
     22 CB          6.8903   26.1557    8.5730 C.3         1 MOL      -0.0156
     23 CG          8.3964   25.7193    8.5200 C.3         1 MOL      -0.0431
     24 CD1         8.9388   25.4550    9.9558 C.3         1 MOL      -0.0625
     25 CD2         8.6415   24.4724    7.6213 C.3         1 MOL      -0.0625
     26 OXT         7.8369   28.8761    7.8570 O.co2       1 MOL      -0.5666
     27 H1          1.3834   21.1074    4.3351 H           1 MOL       0.2015
     28 H2          2.0637   21.8860    3.0305 H           1 MOL       0.2015
     29 H3          1.5101   22.7662    4.3358 H           1 MOL       0.2015
     30 H4          3.1575   21.8553    5.7649 H           1 MOL       0.1099
     31 H5          5.0031   20.4370    4.5252 H           1 MOL       0.0363
     32 H6          3.7532   20.1822    3.2863 H           1 MOL       0.0363
     33 H7          2.2574   19.2058    5.1129 H           1 MOL       0.0434
     34 H8          3.5922   19.4289    6.2548 H           1 MOL       0.0434
     35 H9          2.9253   24.2028    5.2384 H           1 MOL       0.1886
     36 H10         5.4077   25.2405    4.0386 H           1 MOL       0.0819
     37 H11         4.0152   27.3770    3.7031 H           1 MOL       0.0478
     38 H12         2.5706   26.3729    3.9196 H           1 MOL       0.0478
     39 H13         6.6181   25.8659    5.7226 H           1 MOL       0.1875
     40 H14         5.4334   27.5362    7.8069 H           1 MOL       0.0726
     41 H15         6.2652   25.2663    8.7037 H           1 MOL       0.0308
     42 H16         6.7539   26.7604    9.4786 H           1 MOL       0.0308
     43 H17         8.9957   26.5426    8.1051 H           1 MOL       0.0297
     44 H18         9.9939   25.1623    9.9155 H           1 MOL       0.0232
     45 H19         8.3617   24.6615   10.4414 H           1 MOL       0.0232
     46 H20         8.8647   26.3657   10.5561 H           1 MOL       0.0232
     47 H21         8.3637   24.6817    6.5835 H           1 MOL       0.0232
     48 H22         8.0562   23.6170    7.9850 H           1 MOL       0.0232
     49 H23         9.7023   24.2003    7.6332 H           1 MOL       0.0232
@<TRIPOS>BOND
     1     3     2   1
     2     2     5   1
     3     2     1   1
     4     5     6   1
     5     6     7   1
     6     7     8  ar
     7     7     9  ar
     8     3     4   2
     9    12    11   1
    10    11    14   1
    11    11    10   1
    12    14    15   1
    13    15    16  ar
    14    15    17  ar
    15    12    13   2
    16    19    20   1
    17    19    22   1
    18    18    19   1
    19    22    23   1
    20    23    25   1
    21    23    24   1
    22    20    26  ar
    23    20    21  ar
    24    10     3  am
    25    12    18  am
    26     1    27   1
    27     1    28   1
    28     1    29   1
    29     2    30   1
    30     5    31   1
    31     5    32   1
    32     6    33   1
    33     6    34   1
    34    10    35   1
    35    11    36   1
    36    14    37   1
    37    14    38   1
    38    18    39   1
    39    19    40   1
    40    22    41   1
    41    22    42   1
    42    23    43   1
    43    24    44   1
    44    24    45   1
    45    24    46   1
    46    25    47   1
    47    25    48   1
    48    25    49   1
@<TRIPOS>SUBSTRUCTURE
     1  MOL      2

