@<TRIPOS>MOLECULE
1a30_ligand_033
    49    48
SMALL
GAST_HUCK
****
This file was generated by PARSER (from files_GN.cpp)

@<TRIPOS>ATOM
      1 N           8.1971   24.5454    4.5763 N.4         1 MOL       0.2380
      2 CA          7.5225   25.7934    4.1666 C.3         1 MOL       0.0665
      3 C           7.4914   26.7185    5.2947 C.2         1 MOL       0.2269
      4 O           8.0244   27.8159    5.1834 O.2         1 MOL      -0.3907
      5 CB          6.1547   25.5030    3.4501 C.3         1 MOL       0.0194
      6 CG          4.8145   26.0322    4.0447 C.3         1 MOL       0.0075
      7 CD          4.2680   25.2167    5.1453 C.2         1 MOL       0.0351
      8 OE1         3.9685   25.7644    6.3428 O.co2       1 MOL      -0.5690
      9 OE2         3.8476   23.9543    4.9037 O.co2       1 MOL      -0.5690
     10 N           6.9178   26.3465    6.4371 N.am        1 MOL      -0.2595
     11 CA          6.7462   27.0889    7.6549 C.3         1 MOL       0.1424
     12 C           6.1854   28.4282    7.4381 C.2         1 MOL       0.2051
     13 O           6.9448   29.3779    7.2994 O.2         1 MOL      -0.3943
     14 CB          7.9716   26.9834    8.6173 C.3         1 MOL       0.0406
     15 CG          9.2848   27.3564    8.0550 C.2         1 MOL       0.0393
     16 OD1        10.2659   26.4348    7.9362 O.co2       1 MOL      -0.5688
     17 OD2         9.5632   28.6300    7.7124 O.co2       1 MOL      -0.5688
     18 N           4.8719   28.5959    7.3710 N.am        1 MOL      -0.2694
     19 CA          4.1238   29.8053    7.1278 C.3         1 MOL       0.0946
     20 C           3.4121   30.1947    8.3667 C.2         1 MOL       0.0601
     21 O           3.3899   29.4048    9.4652 O.co2       1 MOL      -0.5666
     22 CB          3.1831   29.5345    5.9119 C.3         1 MOL      -0.0156
     23 CG          2.1623   30.6636    5.5332 C.3         1 MOL      -0.0431
     24 CD1         2.0141   30.8439    3.9954 C.3         1 MOL      -0.0625
     25 CD2         0.7626   30.4136    6.1664 C.3         1 MOL      -0.0625
     26 OXT         2.9322   31.4534    8.5061 O.co2       1 MOL      -0.5666
     27 H1          8.3336   23.9441    3.7590 H           1 MOL       0.2015
     28 H2          7.6294   24.0498    5.2656 H           1 MOL       0.2015
     29 H3          9.1109   24.7636    4.9783 H           1 MOL       0.2015
     30 H4          8.1931   26.2104    3.4051 H           1 MOL       0.1099
     31 H5          6.0458   24.4239    3.2947 H           1 MOL       0.0363
     32 H6          6.2181   25.9389    2.4468 H           1 MOL       0.0363
     33 H7          4.0560   26.0301    3.2549 H           1 MOL       0.0434
     34 H8          4.9352   27.0681    4.3667 H           1 MOL       0.0434
     35 H9          6.5529   25.4501    6.4477 H           1 MOL       0.1886
     36 H10         5.9663   26.5294    8.1846 H           1 MOL       0.0819
     37 H11         8.0443   25.9448    8.9531 H           1 MOL       0.0478
     38 H12         7.7958   27.5886    9.5117 H           1 MOL       0.0478
     39 H13         4.3318   27.8064    7.5297 H           1 MOL       0.1875
     40 H14         4.7968   30.6281    6.8674 H           1 MOL       0.0726
     41 H15         2.6394   28.6008    6.0825 H           1 MOL       0.0308
     42 H16         3.8355   29.3476    5.0580 H           1 MOL       0.0308
     43 H17         2.5357   31.6177    5.9136 H           1 MOL       0.0297
     44 H18         1.3034   31.6432    3.7677 H           1 MOL       0.0232
     45 H19         1.6628   29.9228    3.5261 H           1 MOL       0.0232
     46 H20         2.9748   31.1175    3.5541 H           1 MOL       0.0232
     47 H21         0.8425   30.2721    7.2443 H           1 MOL       0.0232
     48 H22         0.3025   29.5187    5.7394 H           1 MOL       0.0232
     49 H23         0.0999   31.2629    5.9863 H           1 MOL       0.0232
@<TRIPOS>BOND
     1     3     2   1
     2     2     5   1
     3     2     1   1
     4     5     6   1
     5     6     7   1
     6     7     8  ar
     7     7     9  ar
     8     3     4   2
     9    12    11   1
    10    11    14   1
    11    11    10   1
    12    14    15   1
    13    15    16  ar
    14    15    17  ar
    15    12    13   2
    16    19    20   1
    17    19    22   1
    18    18    19   1
    19    22    23   1
    20    23    25   1
    21    23    24   1
    22    20    26  ar
    23    20    21  ar
    24    10     3  am
    25    12    18  am
    26     1    27   1
    27     1    28   1
    28     1    29   1
    29     2    30   1
    30     5    31   1
    31     5    32   1
    32     6    33   1
    33     6    34   1
    34    10    35   1
    35    11    36   1
    36    14    37   1
    37    14    38   1
    38    18    39   1
    39    19    40   1
    40    22    41   1
    41    22    42   1
    42    23    43   1
    43    24    44   1
    44    24    45   1
    45    24    46   1
    46    25    47   1
    47    25    48   1
    48    25    49   1
@<TRIPOS>SUBSTRUCTURE
     1  MOL      2

