@<TRIPOS>MOLECULE
1a30_ligand_095
    49    48
SMALL
GAST_HUCK
****
This file was generated by PARSER (from files_GN.cpp)

@<TRIPOS>ATOM
      1 N          15.1551   24.3675    4.9518 N.4         1 MOL       0.2380
      2 CA         15.0274   22.8990    4.9358 C.3         1 MOL       0.0665
      3 C          13.9133   22.5494    4.0651 C.2         1 MOL       0.2269
      4 O          14.1372   21.8653    3.0706 O.2         1 MOL      -0.3907
      5 CB         14.9137   22.3268    6.3853 C.3         1 MOL       0.0194
      6 CG         15.2544   20.8178    6.5279 C.3         1 MOL       0.0075
      7 CD         14.4867   19.9358    5.6318 C.2         1 MOL       0.0351
      8 OE1        13.1350   19.9191    5.6778 O.co2       1 MOL      -0.5690
      9 OE2        15.1185   19.0828    4.7964 O.co2       1 MOL      -0.5690
     10 N          12.7005   23.0270    4.3112 N.am        1 MOL      -0.2595
     11 CA         11.5135   22.8961    3.4944 C.3         1 MOL       0.1424
     12 C          10.3897   23.6477    4.0590 C.2         1 MOL       0.2051
     13 O          10.4212   24.0791    5.2033 O.2         1 MOL      -0.3943
     14 CB         11.1192   21.3968    3.2767 C.3         1 MOL       0.0406
     15 CG         11.7448   20.7956    2.0908 C.2         1 MOL       0.0393
     16 OD1        12.7836   19.9313    2.1963 O.co2       1 MOL      -0.5688
     17 OD2        11.2481   21.0647    0.8598 O.co2       1 MOL      -0.5688
     18 N           9.3151   23.8242    3.2930 N.am        1 MOL      -0.2694
     19 CA          8.1132   24.5412    3.6164 C.3         1 MOL       0.0946
     20 C           7.1256   24.1797    2.5809 C.2         1 MOL       0.0601
     21 O           7.3325   24.4921    1.2792 O.co2       1 MOL      -0.5666
     22 CB          8.3826   26.0764    3.7096 C.3         1 MOL      -0.0156
     23 CG          7.1695   27.0543    3.8520 C.3         1 MOL      -0.0431
     24 CD1         6.4850   27.3991    2.4983 C.3         1 MOL      -0.0625
     25 CD2         6.1216   26.6008    4.9093 C.3         1 MOL      -0.0625
     26 OXT         6.0134   23.4827    2.8993 O.co2       1 MOL      -0.5666
     27 H1         16.0038   24.6283    5.4596 H           1 MOL       0.2015
     28 H2         14.3469   24.7853    5.4199 H           1 MOL       0.2015
     29 H3         15.2086   24.7100    3.9862 H           1 MOL       0.2015
     30 H4         15.9653   22.5257    4.5010 H           1 MOL       0.1099
     31 H5         13.9159   22.5192    6.7930 H           1 MOL       0.0363
     32 H6         15.6235   22.8695    7.0171 H           1 MOL       0.0363
     33 H7         15.0521   20.5073    7.5546 H           1 MOL       0.0434
     34 H8         16.3251   20.6772    6.3502 H           1 MOL       0.0434
     35 H9         12.6211   23.5995    5.0935 H           1 MOL       0.1886
     36 H10        11.7393   23.3702    2.5323 H           1 MOL       0.0819
     37 H11        10.0389   21.2787    3.1409 H           1 MOL       0.0478
     38 H12        11.3825   20.8201    4.1668 H           1 MOL       0.0478
     39 H13         9.3582   23.4137    2.4134 H           1 MOL       0.1875
     40 H14         7.7496   24.1781    4.5828 H           1 MOL       0.0726
     41 H15         8.9766   26.3788    2.8387 H           1 MOL       0.0308
     42 H16         9.0190   26.2384    4.5849 H           1 MOL       0.0308
     43 H17         7.5860   28.0002    4.2174 H           1 MOL       0.0297
     44 H18         5.8090   28.2426    2.6372 H           1 MOL       0.0232
     45 H19         5.9057   26.5573    2.1119 H           1 MOL       0.0232
     46 H20         7.2308   27.6882    1.7536 H           1 MOL       0.0232
     47 H21         6.6178   26.3546    5.8522 H           1 MOL       0.0232
     48 H22         5.5686   25.7218    4.5609 H           1 MOL       0.0232
     49 H23         5.4092   27.4081    5.1000 H           1 MOL       0.0232
@<TRIPOS>BOND
     1     3     2   1
     2     2     5   1
     3     2     1   1
     4     5     6   1
     5     6     7   1
     6     7     8  ar
     7     7     9  ar
     8     3     4   2
     9    12    11   1
    10    11    14   1
    11    11    10   1
    12    14    15   1
    13    15    16  ar
    14    15    17  ar
    15    12    13   2
    16    19    20   1
    17    19    22   1
    18    18    19   1
    19    22    23   1
    20    23    25   1
    21    23    24   1
    22    20    26  ar
    23    20    21  ar
    24    10     3  am
    25    12    18  am
    26     1    27   1
    27     1    28   1
    28     1    29   1
    29     2    30   1
    30     5    31   1
    31     5    32   1
    32     6    33   1
    33     6    34   1
    34    10    35   1
    35    11    36   1
    36    14    37   1
    37    14    38   1
    38    18    39   1
    39    19    40   1
    40    22    41   1
    41    22    42   1
    42    23    43   1
    43    24    44   1
    44    24    45   1
    45    24    46   1
    46    25    47   1
    47    25    48   1
    48    25    49   1
@<TRIPOS>SUBSTRUCTURE
     1  MOL      2

