@<TRIPOS>MOLECULE
1a30_ligand_073
    49    48
SMALL
GAST_HUCK
****
This file was generated by PARSER (from files_GN.cpp)

@<TRIPOS>ATOM
      1 N          13.6493   25.1487    4.3686 N.4         1 MOL       0.2380
      2 CA         13.5973   23.7134    4.6763 C.3         1 MOL       0.0665
      3 C          12.9011   23.5243    5.9419 C.2         1 MOL       0.2269
      4 O          11.8912   22.8292    5.9618 O.2         1 MOL      -0.3907
      5 CB         15.0350   23.0851    4.5481 C.3         1 MOL       0.0194
      6 CG         15.5788   22.1925    5.7009 C.3         1 MOL       0.0075
      7 CD         16.1174   22.8812    6.8920 C.2         1 MOL       0.0351
      8 OE1        16.4395   22.1512    7.9865 O.co2       1 MOL      -0.5690
      9 OE2        16.4322   24.1971    6.8993 O.co2       1 MOL      -0.5690
     10 N          13.3670   24.1005    7.0385 N.am        1 MOL      -0.2595
     11 CA         12.9410   23.9392    8.3981 C.3         1 MOL       0.1424
     12 C          13.1041   22.5496    8.8275 C.2         1 MOL       0.2051
     13 O          12.1934   21.7588    8.6068 O.2         1 MOL      -0.3943
     14 CB         11.5100   24.5070    8.6725 C.3         1 MOL       0.0406
     15 CG         11.1588   25.7223    7.9136 C.2         1 MOL       0.0393
     16 OD1        11.1429   25.6773    6.5596 O.co2       1 MOL      -0.5688
     17 OD2        10.4622   26.7248    8.5031 O.co2       1 MOL      -0.5688
     18 N          14.2253   22.1022    9.4005 N.am        1 MOL      -0.2694
     19 CA         14.4174   20.8078   10.0214 C.3         1 MOL       0.0946
     20 C          15.0466   21.0580   11.3358 C.2         1 MOL       0.0601
     21 O          14.4643   21.9353   12.1814 O.co2       1 MOL      -0.5666
     22 CB         15.0495   19.7285    9.0552 C.3         1 MOL      -0.0156
     23 CG         16.5955   19.4231    9.0778 C.3         1 MOL      -0.0431
     24 CD1        16.9482   18.1398    9.8921 C.3         1 MOL      -0.0625
     25 CD2        17.2085   19.2556    7.6576 C.3         1 MOL      -0.0625
     26 OXT        16.1222   20.3944   11.8154 O.co2       1 MOL      -0.5666
     27 H1         14.1042   25.2556    3.4640 H           1 MOL       0.2015
     28 H2         14.1978   25.6566    5.0635 H           1 MOL       0.2015
     29 H3         12.7021   25.5407    4.3215 H           1 MOL       0.2015
     30 H4         12.9907   23.2752    3.8719 H           1 MOL       0.1099
     31 H5         15.7731   23.8786    4.3615 H           1 MOL       0.0363
     32 H6         15.0474   22.4686    3.6438 H           1 MOL       0.0363
     33 H7         16.3884   21.5823    5.2979 H           1 MOL       0.0434
     34 H8         14.7978   21.4972    6.0144 H           1 MOL       0.0434
     35 H9         14.1224   24.7013    6.9065 H           1 MOL       0.1886
     36 H10        13.6332   24.5504    8.9854 H           1 MOL       0.0819
     37 H11        11.4148   24.7143    9.7395 H           1 MOL       0.0478
     38 H12        10.7586   23.7571    8.4280 H           1 MOL       0.0478
     39 H13        14.9234   22.7583    9.5540 H           1 MOL       0.1875
     40 H14        13.4249   20.4280   10.2848 H           1 MOL       0.0726
     41 H15        14.7677   20.0077    8.0347 H           1 MOL       0.0308
     42 H16        14.5305   18.7801    9.2316 H           1 MOL       0.0308
     43 H17        17.1157   20.2710    9.5295 H           1 MOL       0.0297
     44 H18        18.0309   18.0661   10.0422 H           1 MOL       0.0232
     45 H19        16.6086   17.2439    9.3657 H           1 MOL       0.0232
     46 H20        16.4723   18.1393   10.8763 H           1 MOL       0.0232
     47 H21        17.0072   20.1383    7.0428 H           1 MOL       0.0232
     48 H22        16.7995   18.3815    7.1533 H           1 MOL       0.0232
     49 H23        18.2974   19.1381    7.7163 H           1 MOL       0.0232
@<TRIPOS>BOND
     1     3     2   1
     2     2     5   1
     3     2     1   1
     4     5     6   1
     5     6     7   1
     6     7     8  ar
     7     7     9  ar
     8     3     4   2
     9    12    11   1
    10    11    14   1
    11    11    10   1
    12    14    15   1
    13    15    16  ar
    14    15    17  ar
    15    12    13   2
    16    19    20   1
    17    19    22   1
    18    18    19   1
    19    22    23   1
    20    23    25   1
    21    23    24   1
    22    20    26  ar
    23    20    21  ar
    24    10     3  am
    25    12    18  am
    26     1    27   1
    27     1    28   1
    28     1    29   1
    29     2    30   1
    30     5    31   1
    31     5    32   1
    32     6    33   1
    33     6    34   1
    34    10    35   1
    35    11    36   1
    36    14    37   1
    37    14    38   1
    38    18    39   1
    39    19    40   1
    40    22    41   1
    41    22    42   1
    42    23    43   1
    43    24    44   1
    44    24    45   1
    45    24    46   1
    46    25    47   1
    47    25    48   1
    48    25    49   1
@<TRIPOS>SUBSTRUCTURE
     1  MOL      2

