@<TRIPOS>MOLECULE
1a30_ligand_041
    49    48
SMALL
GAST_HUCK
****
This file was generated by PARSER (from files_GN.cpp)

@<TRIPOS>ATOM
      1 N          10.6304   24.9101    2.0099 N.4         1 MOL       0.2380
      2 CA          9.9416   24.3050    3.1636 C.3         1 MOL       0.0665
      3 C          10.7572   24.4760    4.3635 C.2         1 MOL       0.2269
      4 O          11.8247   23.8867    4.4487 O.2         1 MOL      -0.3907
      5 CB          9.5857   22.8069    2.9115 C.3         1 MOL       0.0194
      6 CG          8.6136   22.5599    1.7214 C.3         1 MOL       0.0075
      7 CD          7.3636   23.3388    1.8145 C.2         1 MOL       0.0351
      8 OE1         7.1182   24.3636    0.9678 O.co2       1 MOL      -0.5690
      9 OE2         6.4707   23.0836    2.7961 O.co2       1 MOL      -0.5690
     10 N          10.2898   25.2057    5.3687 N.am        1 MOL      -0.2595
     11 CA         10.9371   25.5099    6.6169 C.3         1 MOL       0.1424
     12 C          11.4686   24.3010    7.2451 C.2         1 MOL       0.2051
     13 O          10.6887   23.3950    7.5168 O.2         1 MOL      -0.3943
     14 CB          9.9166   26.2142    7.5626 C.3         1 MOL       0.0406
     15 CG          9.4225   27.5169    7.0746 C.2         1 MOL       0.0393
     16 OD1         9.2887   28.5498    7.9338 O.co2       1 MOL      -0.5688
     17 OD2         8.7523   27.5920    5.9027 O.co2       1 MOL      -0.5688
     18 N          12.7603   24.1896    7.5311 N.am        1 MOL      -0.2694
     19 CA         13.3981   23.0240    8.0766 C.3         1 MOL       0.0946
     20 C          13.3000   23.0647    9.5541 C.2         1 MOL       0.0601
     21 O          12.9756   21.9533   10.2569 O.co2       1 MOL      -0.5666
     22 CB         14.8879   22.9142    7.6297 C.3         1 MOL      -0.0156
     23 CG         15.1927   22.6884    6.1083 C.3         1 MOL      -0.0431
     24 CD1        14.2706   21.6483    5.4145 C.3         1 MOL      -0.0625
     25 CD2        15.2680   24.0087    5.2909 C.3         1 MOL      -0.0625
     26 OXT        13.6479   24.1783   10.2414 O.co2       1 MOL      -0.5666
     27 H1         10.0363   24.8580    1.1794 H           1 MOL       0.2015
     28 H2         11.5093   24.4190    1.8273 H           1 MOL       0.2015
     29 H3         10.8309   25.8894    2.2187 H           1 MOL       0.2015
     30 H4          9.0044   24.8584    3.2875 H           1 MOL       0.1099
     31 H5          9.1235   22.3907    3.8141 H           1 MOL       0.0363
     32 H6         10.5096   22.2508    2.7369 H           1 MOL       0.0363
     33 H7          8.3412   21.5039    1.6955 H           1 MOL       0.0434
     34 H8          9.1152   22.7901    0.7799 H           1 MOL       0.0434
     35 H9          9.4098   25.5979    5.2425 H           1 MOL       0.1886
     36 H10        11.7498   26.2115    6.4045 H           1 MOL       0.0819
     37 H11        10.3791   26.3617    8.5416 H           1 MOL       0.0478
     38 H12         9.0509   25.5635    7.7064 H           1 MOL       0.0478
     39 H13        13.3384   24.9416    7.3156 H           1 MOL       0.1875
     40 H14        12.8874   22.1168    7.7370 H           1 MOL       0.0726
     41 H15        15.3257   22.0697    8.1706 H           1 MOL       0.0308
     42 H16        15.4246   23.8093    7.9659 H           1 MOL       0.0308
     43 H17        16.2008   22.2629    6.0668 H           1 MOL       0.0297
     44 H18        14.6393   21.4214    4.4148 H           1 MOL       0.0232
     45 H19        13.2506   22.0270    5.3269 H           1 MOL       0.0232
     46 H20        14.2507   20.7195    5.9893 H           1 MOL       0.0232
     47 H21        16.0234   24.6728    5.7175 H           1 MOL       0.0232
     48 H22        14.3134   24.5302    5.2841 H           1 MOL       0.0232
     49 H23        15.5534   23.8002    4.2543 H           1 MOL       0.0232
@<TRIPOS>BOND
     1     3     2   1
     2     2     5   1
     3     2     1   1
     4     5     6   1
     5     6     7   1
     6     7     8  ar
     7     7     9  ar
     8     3     4   2
     9    12    11   1
    10    11    14   1
    11    11    10   1
    12    14    15   1
    13    15    16  ar
    14    15    17  ar
    15    12    13   2
    16    19    20   1
    17    19    22   1
    18    18    19   1
    19    22    23   1
    20    23    25   1
    21    23    24   1
    22    20    26  ar
    23    20    21  ar
    24    10     3  am
    25    12    18  am
    26     1    27   1
    27     1    28   1
    28     1    29   1
    29     2    30   1
    30     5    31   1
    31     5    32   1
    32     6    33   1
    33     6    34   1
    34    10    35   1
    35    11    36   1
    36    14    37   1
    37    14    38   1
    38    18    39   1
    39    19    40   1
    40    22    41   1
    41    22    42   1
    42    23    43   1
    43    24    44   1
    44    24    45   1
    45    24    46   1
    46    25    47   1
    47    25    48   1
    48    25    49   1
@<TRIPOS>SUBSTRUCTURE
     1  MOL      2

