@<TRIPOS>MOLECULE
1a30_ligand_050
    49    48
SMALL
GAST_HUCK
****
This file was generated by PARSER (from files_GN.cpp)

@<TRIPOS>ATOM
      1 N          16.1496   24.0482    8.0374 N.4         1 MOL       0.2380
      2 CA         15.2326   22.8872    8.0506 C.3         1 MOL       0.0665
      3 C          15.0122   22.3196    6.7125 C.2         1 MOL       0.2269
      4 O          15.4219   22.9183    5.7244 O.2         1 MOL      -0.3907
      5 CB         13.9052   23.2735    8.7735 C.3         1 MOL       0.0194
      6 CG         12.9681   24.2274    7.9661 C.3         1 MOL       0.0075
      7 CD         11.5435   24.0094    8.2574 C.2         1 MOL       0.0351
      8 OE1        10.8502   23.0820    7.5463 O.co2       1 MOL      -0.5690
      9 OE2        10.8711   24.7704    9.1518 O.co2       1 MOL      -0.5690
     10 N          14.3521   21.1682    6.5882 N.am        1 MOL      -0.2595
     11 CA         13.9283   20.4973    5.3912 C.3         1 MOL       0.1424
     12 C          15.0870   19.9483    4.6754 C.2         1 MOL       0.2051
     13 O          15.6627   20.6412    3.8320 O.2         1 MOL      -0.3943
     14 CB         12.8660   21.3659    4.6082 C.3         1 MOL       0.0406
     15 CG         13.0588   21.4754    3.1350 C.2         1 MOL       0.0393
     16 OD1        11.9916   21.5600    2.2973 O.co2       1 MOL      -0.5688
     17 OD2        14.2832   21.7603    2.6280 O.co2       1 MOL      -0.5688
     18 N          15.5050   18.7191    4.9539 N.am        1 MOL      -0.2694
     19 CA         16.6264   17.9656    4.4533 C.3         1 MOL       0.0946
     20 C          17.8675   18.7274    4.1988 C.2         1 MOL       0.0601
     21 O          18.6578   18.4901    3.1311 O.co2       1 MOL      -0.5666
     22 CB         16.2042   16.9439    3.3435 C.3         1 MOL      -0.0156
     23 CG         15.5413   17.4216    2.0063 C.3         1 MOL      -0.0431
     24 CD1        14.0461   17.8310    2.1466 C.3         1 MOL      -0.0625
     25 CD2        16.3617   18.4837    1.2298 C.3         1 MOL      -0.0625
     26 OXT        18.3744   19.5238    5.1715 O.co2       1 MOL      -0.5666
     27 H1         16.4564   24.2504    8.9984 H           1 MOL       0.2015
     28 H2         15.6627   24.8659    7.6506 H           1 MOL       0.2015
     29 H3         16.9670   23.8236    7.4564 H           1 MOL       0.2015
     30 H4         15.7234   22.1137    8.6500 H           1 MOL       0.1099
     31 H5         14.1489   23.7595    9.7269 H           1 MOL       0.0363
     32 H6         13.3679   22.3495    9.0218 H           1 MOL       0.0363
     33 H7         13.1022   24.0885    6.8896 H           1 MOL       0.0434
     34 H8         13.2372   25.2640    8.1954 H           1 MOL       0.0434
     35 H9         14.0774   20.7566    7.4259 H           1 MOL       0.1886
     36 H10        13.3480   19.6437    5.7573 H           1 MOL       0.0819
     37 H11        12.8327   22.3948    5.0056 H           1 MOL       0.0478
     38 H12        11.8655   20.9351    4.7891 H           1 MOL       0.0478
     39 H13        15.0314   18.2816    5.6842 H           1 MOL       0.1875
     40 H14        16.8916   17.3482    5.3151 H           1 MOL       0.0726
     41 H15        15.5118   16.2362    3.8040 H           1 MOL       0.0308
     42 H16        17.0874   16.3591    3.0770 H           1 MOL       0.0308
     43 H17        15.5330   16.5373    1.3567 H           1 MOL       0.0297
     44 H18        13.5735   17.8999    1.1603 H           1 MOL       0.0232
     45 H19        13.9489   18.8016    2.6279 H           1 MOL       0.0232
     46 H20        13.4943   17.0953    2.7374 H           1 MOL       0.0232
     47 H21        17.3559   18.0982    0.9994 H           1 MOL       0.0232
     48 H22        16.4673   19.4010    1.8022 H           1 MOL       0.0232
     49 H23        15.8798   18.7420    0.2856 H           1 MOL       0.0232
@<TRIPOS>BOND
     1     3     2   1
     2     2     5   1
     3     2     1   1
     4     5     6   1
     5     6     7   1
     6     7     8  ar
     7     7     9  ar
     8     3     4   2
     9    12    11   1
    10    11    14   1
    11    11    10   1
    12    14    15   1
    13    15    16  ar
    14    15    17  ar
    15    12    13   2
    16    19    20   1
    17    19    22   1
    18    18    19   1
    19    22    23   1
    20    23    25   1
    21    23    24   1
    22    20    26  ar
    23    20    21  ar
    24    10     3  am
    25    12    18  am
    26     1    27   1
    27     1    28   1
    28     1    29   1
    29     2    30   1
    30     5    31   1
    31     5    32   1
    32     6    33   1
    33     6    34   1
    34    10    35   1
    35    11    36   1
    36    14    37   1
    37    14    38   1
    38    18    39   1
    39    19    40   1
    40    22    41   1
    41    22    42   1
    42    23    43   1
    43    24    44   1
    44    24    45   1
    45    24    46   1
    46    25    47   1
    47    25    48   1
    48    25    49   1
@<TRIPOS>SUBSTRUCTURE
     1  MOL      2

