@<TRIPOS>MOLECULE
1bcu_ligand_054
    27    29
SMALL
GAST_HUCK
****
This file was generated by PARSER (from files_GN.cpp)

@<TRIPOS>ATOM
      1 C1         16.8305   17.1385   58.5637 C.ar        1 PRL      -0.0483
      2 C2         16.4857   16.9065   57.2179 C.ar        1 PRL      -0.0317
      3 C3         15.3000   16.2090   56.8987 C.ar        1 PRL       0.0415
      4 C4         14.4629   15.7385   57.9310 C.ar        1 PRL      -0.0313
      5 C5         13.4222   15.1556   62.5735 C.ar        1 PRL      -0.0313
      6 C6         13.7207   15.3313   63.9413 C.ar        1 PRL       0.0415
      7 C7         14.8868   16.0305   64.3232 C.ar        1 PRL      -0.0317
      8 C8         15.7554   16.5572   63.3464 C.ar        1 PRL      -0.0483
      9 C9         16.3144   16.8841   60.9639 C.ar        1 PRL      -0.0279
     10 N10        14.0048   15.5034   60.2763 N.ar        1 PRL      -0.3286
     11 C11        14.8048   15.9678   59.2792 C.ar        1 PRL       0.0162
     12 C12        15.4652   16.3864   61.9759 C.ar        1 PRL       0.0016
     13 C13        15.9976   16.6755   59.6029 C.ar        1 PRL       0.0016
     14 C14        14.2878   15.6815   61.5914 C.ar        1 PRL       0.0162
     15 N15        14.9759   16.0088   55.6089 N.pl3       1 PRL      -0.3324
     16 N16        12.8980   14.8327   64.8841 N.pl3       1 PRL      -0.3324
     17 H1         17.6989   17.6351   58.7752 H           1 PRL       0.0666
     18 H2         17.1032   17.2489   56.4783 H           1 PRL       0.0587
     19 H3         13.5971   15.2388   57.7062 H           1 PRL       0.0438
     20 H4         12.5804   14.6448   62.2895 H           1 PRL       0.0438
     21 H5         15.1097   16.1563   65.3124 H           1 PRL       0.0587
     22 H6         16.5984   17.0561   63.6446 H           1 PRL       0.0666
     23 H7         17.1662   17.3927   61.2178 H           1 PRL       0.0848
     24 H8         15.5518   16.3645   54.9105 H           1 PRL       0.1756
     25 H9         14.1707   15.5194   55.3776 H           1 PRL       0.1756
     26 H10        12.0902   14.3631   64.6250 H           1 PRL       0.1756
     27 H11        13.1061   14.9503   65.8257 H           1 PRL       0.1756
@<TRIPOS>BOND
     1     1    13  ar
     2     1     2  ar
     3     2     3  ar
     4     3    15   1
     5     3     4  ar
     6     4    11  ar
     7    11    10  ar
     8    11    13  ar
     9    13     9  ar
    10     9    12  ar
    11    12     8  ar
    12    12    14  ar
    13    14     5  ar
    14    14    10  ar
    15     5     6  ar
    16     6    16   1
    17     6     7  ar
    18     7     8  ar
    19     1    17   1
    20     2    18   1
    21     4    19   1
    22     5    20   1
    23     7    21   1
    24     8    22   1
    25     9    23   1
    26    15    24   1
    27    15    25   1
    28    16    26   1
    29    16    27   1
@<TRIPOS>SUBSTRUCTURE
     1  PRL      1

