@<TRIPOS>MOLECULE
1bcu_ligand_012
    27    29
SMALL
GAST_HUCK
****
This file was generated by PARSER (from files_GN.cpp)

@<TRIPOS>ATOM
      1 C1          3.5371   15.9573   57.1276 C.ar        1 PRL      -0.0483
      2 C2          2.3790   15.2155   57.4260 C.ar        1 PRL      -0.0317
      3 C3          1.3986   15.7431   58.2904 C.ar        1 PRL       0.0415
      4 C4          1.5701   17.0276   58.8454 C.ar        1 PRL      -0.0313
      5 C5          4.1203   21.0386   59.4650 C.ar        1 PRL      -0.0313
      6 C6          5.2490   21.8411   59.2013 C.ar        1 PRL       0.0415
      7 C7          6.2629   21.3650   58.3455 C.ar        1 PRL      -0.0317
      8 C8          6.1574   20.0913   57.7572 C.ar        1 PRL      -0.0483
      9 C9          4.8774   18.0069   57.4310 C.ar        1 PRL      -0.0279
     10 N10         2.9056   19.0026   59.1030 N.ar        1 PRL      -0.3286
     11 C11         2.7303   17.7723   58.5549 C.ar        1 PRL       0.0162
     12 C12         5.0276   19.2844   58.0100 C.ar        1 PRL       0.0016
     13 C13         3.7257   17.2362   57.6936 C.ar        1 PRL       0.0016
     14 C14         4.0021   19.7684   58.8670 C.ar        1 PRL       0.0162
     15 N15         0.3089   15.0154   58.5913 N.pl3       1 PRL      -0.3324
     16 N16         5.3572   23.0607   59.7577 N.pl3       1 PRL      -0.3324
     17 H1          4.2404   15.5580   56.5007 H           1 PRL       0.0666
     18 H2          2.2561   14.2879   57.0130 H           1 PRL       0.0587
     19 H3          0.8562   17.4193   59.4664 H           1 PRL       0.0438
     20 H4          3.3801   21.3802   60.0850 H           1 PRL       0.0438
     21 H5          7.0820   21.9444   58.1452 H           1 PRL       0.0587
     22 H6          6.9033   19.7602   57.1403 H           1 PRL       0.0666
     23 H7          5.6076   17.6376   56.8156 H           1 PRL       0.0848
     24 H8          0.2020   14.1254   58.2206 H           1 PRL       0.1756
     25 H9         -0.3637   15.3703   59.1938 H           1 PRL       0.1756
     26 H10         4.6611   23.3913   60.3467 H           1 PRL       0.1756
     27 H11         6.1291   23.6157   59.5655 H           1 PRL       0.1756
@<TRIPOS>BOND
     1     1    13  ar
     2     1     2  ar
     3     2     3  ar
     4     3    15   1
     5     3     4  ar
     6     4    11  ar
     7    11    10  ar
     8    11    13  ar
     9    13     9  ar
    10     9    12  ar
    11    12     8  ar
    12    12    14  ar
    13    14     5  ar
    14    14    10  ar
    15     5     6  ar
    16     6    16   1
    17     6     7  ar
    18     7     8  ar
    19     1    17   1
    20     2    18   1
    21     4    19   1
    22     5    20   1
    23     7    21   1
    24     8    22   1
    25     9    23   1
    26    15    24   1
    27    15    25   1
    28    16    26   1
    29    16    27   1
@<TRIPOS>SUBSTRUCTURE
     1  PRL      1

