@<TRIPOS>MOLECULE
1bcu_ligand_075
    27    29
SMALL
GAST_HUCK
****
This file was generated by PARSER (from files_GN.cpp)

@<TRIPOS>ATOM
      1 C1         13.0891   12.0451   60.8122 C.ar        1 PRL      -0.0483
      2 C2         11.9047   11.9304   61.5634 C.ar        1 PRL      -0.0317
      3 C3         10.7840   12.7240   61.2474 C.ar        1 PRL       0.0415
      4 C4         10.8501   13.6373   60.1765 C.ar        1 PRL      -0.0313
      5 C5         13.2011   15.7277   56.5613 C.ar        1 PRL      -0.0313
      6 C6         14.3518   15.8988   55.7664 C.ar        1 PRL       0.0415
      7 C7         15.5098   15.1420   56.0363 C.ar        1 PRL      -0.0317
      8 C8         15.5194   14.2111   57.0908 C.ar        1 PRL      -0.0483
      9 C9         14.3332   13.1056   58.9572 C.ar        1 PRL      -0.0279
     10 N10        12.0962   14.6351   58.3875 N.ar        1 PRL      -0.3286
     11 C11        12.0335   13.7562   59.4209 C.ar        1 PRL       0.0162
     12 C12        14.3693   14.0293   57.8910 C.ar        1 PRL       0.0016
     13 C13        13.1650   12.9560   59.7368 C.ar        1 PRL       0.0016
     14 C14        13.2057   14.7994   57.6200 C.ar        1 PRL       0.0162
     15 N15         9.6531   12.6099   61.9659 N.pl3       1 PRL      -0.3324
     16 N16        14.3452   16.7829   54.7550 N.pl3       1 PRL      -0.3324
     17 H1         13.8915   11.4600   61.0584 H           1 PRL       0.0666
     18 H2         11.8645   11.2663   62.3403 H           1 PRL       0.0587
     19 H3         10.0378   14.2158   59.9468 H           1 PRL       0.0438
     20 H4         12.3613   16.2804   56.3691 H           1 PRL       0.0438
     21 H5         16.3514   15.2641   55.4675 H           1 PRL       0.0587
     22 H6         16.3690   13.6697   57.2683 H           1 PRL       0.0666
     23 H7         15.1596   12.5398   59.1676 H           1 PRL       0.0848
     24 H8          9.6060   11.9796   62.7019 H           1 PRL       0.1756
     25 H9          8.8808   13.1555   61.7478 H           1 PRL       0.1756
     26 H10        13.5483   17.3048   54.5698 H           1 PRL       0.1756
     27 H11        15.1400   16.9039   54.2130 H           1 PRL       0.1756
@<TRIPOS>BOND
     1     1    13  ar
     2     1     2  ar
     3     2     3  ar
     4     3    15   1
     5     3     4  ar
     6     4    11  ar
     7    11    10  ar
     8    11    13  ar
     9    13     9  ar
    10     9    12  ar
    11    12     8  ar
    12    12    14  ar
    13    14     5  ar
    14    14    10  ar
    15     5     6  ar
    16     6    16   1
    17     6     7  ar
    18     7     8  ar
    19     1    17   1
    20     2    18   1
    21     4    19   1
    22     5    20   1
    23     7    21   1
    24     8    22   1
    25     9    23   1
    26    15    24   1
    27    15    25   1
    28    16    26   1
    29    16    27   1
@<TRIPOS>SUBSTRUCTURE
     1  PRL      1

