@<TRIPOS>MOLECULE
1bcu_ligand_082
    27    29
SMALL
GAST_HUCK
****
This file was generated by PARSER (from files_GN.cpp)

@<TRIPOS>ATOM
      1 C1         16.9529   13.7965   56.5859 C.ar        1 PRL      -0.0483
      2 C2         17.5198   12.6874   55.9309 C.ar        1 PRL      -0.0317
      3 C3         16.6942   11.6764   55.3996 C.ar        1 PRL       0.0415
      4 C4         15.2941   11.7772   55.5254 C.ar        1 PRL      -0.0313
      5 C5         11.3489   14.0680   56.9906 C.ar        1 PRL      -0.0313
      6 C6         10.7087   15.1660   57.5996 C.ar        1 PRL       0.0415
      7 C7         11.4795   16.2041   58.1608 C.ar        1 PRL      -0.0317
      8 C8         12.8848   16.1536   58.1088 C.ar        1 PRL      -0.0483
      9 C9         14.9398   14.9979   57.3696 C.ar        1 PRL      -0.0279
     10 N10        13.3717   12.9812   56.3008 N.ar        1 PRL      -0.3286
     11 C11        14.7210   12.8841   56.1812 C.ar        1 PRL       0.0162
     12 C12        13.5341   15.0709   57.4768 C.ar        1 PRL       0.0016
     13 C13        15.5513   13.9047   56.7181 C.ar        1 PRL       0.0016
     14 C14        12.7550   14.0217   56.9184 C.ar        1 PRL       0.0162
     15 N15        17.2410   10.6199   54.7725 N.pl3       1 PRL      -0.3324
     16 N16         9.3660   15.2424   57.6209 N.pl3       1 PRL      -0.3324
     17 H1         17.5688   14.5204   56.9653 H           1 PRL       0.0666
     18 H2         18.5370   12.6211   55.8439 H           1 PRL       0.0587
     19 H3         14.6915   11.0448   55.1403 H           1 PRL       0.0438
     20 H4         10.7917   13.3150   56.5774 H           1 PRL       0.0438
     21 H5         11.0216   17.0040   58.6056 H           1 PRL       0.0587
     22 H6         13.4270   16.9152   58.5245 H           1 PRL       0.0666
     23 H7         15.5195   15.7463   57.7607 H           1 PRL       0.0848
     24 H8         18.2047   10.5516   54.6829 H           1 PRL       0.1756
     25 H9         16.6728    9.9239   54.4063 H           1 PRL       0.1756
     26 H10         8.8304   14.5350   57.2281 H           1 PRL       0.1756
     27 H11         8.9355   16.0456   57.9560 H           1 PRL       0.1756
@<TRIPOS>BOND
     1     1    13  ar
     2     1     2  ar
     3     2     3  ar
     4     3    15   1
     5     3     4  ar
     6     4    11  ar
     7    11    10  ar
     8    11    13  ar
     9    13     9  ar
    10     9    12  ar
    11    12     8  ar
    12    12    14  ar
    13    14     5  ar
    14    14    10  ar
    15     5     6  ar
    16     6    16   1
    17     6     7  ar
    18     7     8  ar
    19     1    17   1
    20     2    18   1
    21     4    19   1
    22     5    20   1
    23     7    21   1
    24     8    22   1
    25     9    23   1
    26    15    24   1
    27    15    25   1
    28    16    26   1
    29    16    27   1
@<TRIPOS>SUBSTRUCTURE
     1  PRL      1

