@<TRIPOS>MOLECULE
1bcu_ligand_064
    27    29
SMALL
GAST_HUCK
****
This file was generated by PARSER (from files_GN.cpp)

@<TRIPOS>ATOM
      1 C1          8.0001   14.4918   53.8426 C.ar        1 PRL      -0.0483
      2 C2          7.0315   13.8289   54.6179 C.ar        1 PRL      -0.0317
      3 C3          7.3368   13.4040   55.9270 C.ar        1 PRL       0.0415
      4 C4          8.6142   13.6577   56.4664 C.ar        1 PRL      -0.0313
      5 C5         13.0718   15.3850   56.1046 C.ar        1 PRL      -0.0313
      6 C6         14.0857   16.0525   55.3894 C.ar        1 PRL       0.0415
      7 C7         13.8395   16.4980   54.0758 C.ar        1 PRL      -0.0317
      8 C8         12.5894   16.2785   53.4714 C.ar        1 PRL      -0.0483
      9 C9         10.2912   15.3859   53.6213 C.ar        1 PRL      -0.0279
     10 N10        10.8279   14.5451   56.2044 N.ar        1 PRL      -0.3286
     11 C11         9.5905   14.3153   55.6926 C.ar        1 PRL       0.0162
     12 C12        11.5650   15.6158   54.1827 C.ar        1 PRL       0.0016
     13 C13         9.2875   14.7359   54.3692 C.ar        1 PRL       0.0016
     14 C14        11.8126   15.1697   55.5096 C.ar        1 PRL       0.0162
     15 N15         6.4137   12.7498   56.6522 N.pl3       1 PRL      -0.3324
     16 N16        15.2840   16.2700   55.9589 N.pl3       1 PRL      -0.3324
     17 H1          7.7609   14.7897   52.8934 H           1 PRL       0.0666
     18 H2          6.1046   13.6545   54.2216 H           1 PRL       0.0587
     19 H3          8.8364   13.3570   57.4194 H           1 PRL       0.0438
     20 H4         13.2472   15.0602   57.0589 H           1 PRL       0.0438
     21 H5         14.5716   16.9821   53.5518 H           1 PRL       0.0587
     22 H6         12.4315   16.6082   52.5151 H           1 PRL       0.0666
     23 H7         10.0941   15.6938   52.6643 H           1 PRL       0.0848
     24 H8          5.5399   12.5635   56.2730 H           1 PRL       0.1756
     25 H9          6.6232   12.4470   57.5502 H           1 PRL       0.1756
     26 H10        15.4591   15.9624   56.8623 H           1 PRL       0.1756
     27 H11        15.9770   16.7319   55.4617 H           1 PRL       0.1756
@<TRIPOS>BOND
     1     1    13  ar
     2     1     2  ar
     3     2     3  ar
     4     3    15   1
     5     3     4  ar
     6     4    11  ar
     7    11    10  ar
     8    11    13  ar
     9    13     9  ar
    10     9    12  ar
    11    12     8  ar
    12    12    14  ar
    13    14     5  ar
    14    14    10  ar
    15     5     6  ar
    16     6    16   1
    17     6     7  ar
    18     7     8  ar
    19     1    17   1
    20     2    18   1
    21     4    19   1
    22     5    20   1
    23     7    21   1
    24     8    22   1
    25     9    23   1
    26    15    24   1
    27    15    25   1
    28    16    26   1
    29    16    27   1
@<TRIPOS>SUBSTRUCTURE
     1  PRL      1

