@<TRIPOS>MOLECULE
1bcu_ligand_089
    27    29
SMALL
GAST_HUCK
****
This file was generated by PARSER (from files_GN.cpp)

@<TRIPOS>ATOM
      1 C1         10.3643    9.9564   53.4923 C.ar        1 PRL      -0.0483
      2 C2         10.0652    9.3491   52.2588 C.ar        1 PRL      -0.0317
      3 C3         10.3707   10.0062   51.0495 C.ar        1 PRL       0.0415
      4 C4         10.9943   11.2702   51.0756 C.ar        1 PRL      -0.0313
      5 C5         12.7926   15.0281   53.4454 C.ar        1 PRL      -0.0313
      6 C6         13.1304   15.6900   54.6437 C.ar        1 PRL       0.0415
      7 C7         12.8473   15.0826   55.8837 C.ar        1 PRL      -0.0317
      8 C8         12.2256   13.8221   55.9326 C.ar        1 PRL      -0.0483
      9 C9         11.2769   11.8789   54.7424 C.ar        1 PRL      -0.0279
     10 N10        11.8752   13.1106   52.3355 N.ar        1 PRL      -0.3286
     11 C11        11.2907   11.8854   52.3078 C.ar        1 PRL       0.0162
     12 C12        11.8904   13.1487   54.7376 C.ar        1 PRL       0.0016
     13 C13        10.9720   11.2294   53.5276 C.ar        1 PRL       0.0016
     14 C14        12.1829   13.7594   53.4881 C.ar        1 PRL       0.0162
     15 N15        10.0564    9.4300   49.8764 N.pl3       1 PRL      -0.3324
     16 N16        13.7271   16.8942   54.6064 N.pl3       1 PRL      -0.3324
     17 H1         10.1327    9.4667   54.3607 H           1 PRL       0.0666
     18 H2          9.6205    8.4281   52.2468 H           1 PRL       0.0587
     19 H3         11.2263   11.7468   50.1996 H           1 PRL       0.0438
     20 H4         12.9976   15.4651   52.5424 H           1 PRL       0.0438
     21 H5         13.0947   15.5547   56.7573 H           1 PRL       0.0587
     22 H6         12.0253   13.3961   56.8413 H           1 PRL       0.0666
     23 H7         11.0525   11.4245   55.6328 H           1 PRL       0.0848
     24 H8          9.6125    8.5673   49.8621 H           1 PRL       0.1756
     25 H9         10.2551    9.8827   49.0417 H           1 PRL       0.1756
     26 H10        13.9238   17.3138   53.7550 H           1 PRL       0.1756
     27 H11        13.9685   17.3435   55.4315 H           1 PRL       0.1756
@<TRIPOS>BOND
     1     1    13  ar
     2     1     2  ar
     3     2     3  ar
     4     3    15   1
     5     3     4  ar
     6     4    11  ar
     7    11    10  ar
     8    11    13  ar
     9    13     9  ar
    10     9    12  ar
    11    12     8  ar
    12    12    14  ar
    13    14     5  ar
    14    14    10  ar
    15     5     6  ar
    16     6    16   1
    17     6     7  ar
    18     7     8  ar
    19     1    17   1
    20     2    18   1
    21     4    19   1
    22     5    20   1
    23     7    21   1
    24     8    22   1
    25     9    23   1
    26    15    24   1
    27    15    25   1
    28    16    26   1
    29    16    27   1
@<TRIPOS>SUBSTRUCTURE
     1  PRL      1

