@<TRIPOS>MOLECULE
1bcu_ligand_015
    27    29
SMALL
GAST_HUCK
****
This file was generated by PARSER (from files_GN.cpp)

@<TRIPOS>ATOM
      1 C1          5.1616   17.0256   47.1079 C.ar        1 PRL      -0.0483
      2 C2          5.0658   16.9121   45.7100 C.ar        1 PRL      -0.0317
      3 C3          4.0665   17.6101   45.0046 C.ar        1 PRL       0.0415
      4 C4          3.1638   18.4370   45.7058 C.ar        1 PRL      -0.0313
      5 C5          1.4579   20.3068   49.7835 C.ar        1 PRL      -0.0313
      6 C6          1.5018   20.4749   51.1820 C.ar        1 PRL       0.0415
      7 C7          2.4803   19.7995   51.9381 C.ar        1 PRL      -0.0317
      8 C8          3.4145   18.9610   51.3013 C.ar        1 PRL      -0.0483
      9 C9          4.3066   17.9690   49.2235 C.ar        1 PRL      -0.0279
     10 N10         2.3694   19.3321   47.7881 N.ar        1 PRL      -0.3286
     11 C11         3.2481   18.5497   47.1077 C.ar        1 PRL       0.0162
     12 C12         3.3832   18.7948   49.9003 C.ar        1 PRL       0.0016
     13 C13         4.2520   17.8385   47.8193 C.ar        1 PRL       0.0016
     14 C14         2.3981   19.4786   49.1384 C.ar        1 PRL       0.0162
     15 N15         3.9633   17.4802   43.6696 N.pl3       1 PRL      -0.3324
     16 N16         0.6167   21.2826   51.7929 N.pl3       1 PRL      -0.3324
     17 H1          5.8937   16.5070   47.5992 H           1 PRL       0.0666
     18 H2          5.7253   16.3106   45.2115 H           1 PRL       0.0587
     19 H3          2.4380   18.9508   45.1967 H           1 PRL       0.0438
     20 H4          0.7435   20.7897   49.2336 H           1 PRL       0.0438
     21 H5          2.5205   19.9163   52.9535 H           1 PRL       0.0587
     22 H6          4.1192   18.4813   51.8660 H           1 PRL       0.0666
     23 H7          5.0205   17.4624   49.7541 H           1 PRL       0.0848
     24 H8          4.5635   16.9003   43.1707 H           1 PRL       0.1756
     25 H9          3.2715   17.9655   43.1985 H           1 PRL       0.1756
     26 H10        -0.0499   21.7565   51.2707 H           1 PRL       0.1756
     27 H11         0.6486   21.4012   52.7553 H           1 PRL       0.1756
@<TRIPOS>BOND
     1     1    13  ar
     2     1     2  ar
     3     2     3  ar
     4     3    15   1
     5     3     4  ar
     6     4    11  ar
     7    11    10  ar
     8    11    13  ar
     9    13     9  ar
    10     9    12  ar
    11    12     8  ar
    12    12    14  ar
    13    14     5  ar
    14    14    10  ar
    15     5     6  ar
    16     6    16   1
    17     6     7  ar
    18     7     8  ar
    19     1    17   1
    20     2    18   1
    21     4    19   1
    22     5    20   1
    23     7    21   1
    24     8    22   1
    25     9    23   1
    26    15    24   1
    27    15    25   1
    28    16    26   1
    29    16    27   1
@<TRIPOS>SUBSTRUCTURE
     1  PRL      1

