@<TRIPOS>MOLECULE
1bcu_ligand_092
    27    29
SMALL
GAST_HUCK
****
This file was generated by PARSER (from files_GN.cpp)

@<TRIPOS>ATOM
      1 C1         11.9356   11.3517   50.7886 C.ar        1 PRL      -0.0483
      2 C2         11.9325   12.6253   51.3882 C.ar        1 PRL      -0.0317
      3 C3         11.0812   13.6384   50.9018 C.ar        1 PRL       0.0415
      4 C4         10.2232   13.3717   49.8159 C.ar        1 PRL      -0.0313
      5 C5          8.4884   10.4453   46.4360 C.ar        1 PRL      -0.0313
      6 C6          8.4363    9.1941   45.7879 C.ar        1 PRL       0.0415
      7 C7          9.2693    8.1441   46.2246 C.ar        1 PRL      -0.0317
      8 C8         10.1521    8.3380   47.3024 C.ar        1 PRL      -0.0483
      9 C9         11.0682    9.8210   49.0541 C.ar        1 PRL      -0.0279
     10 N10         9.4086   11.8446   48.1540 N.ar        1 PRL      -0.3286
     11 C11        10.2191   12.0977   49.2135 C.ar        1 PRL       0.0162
     12 C12        10.2052    9.5856   47.9626 C.ar        1 PRL       0.0016
     13 C13        11.0863   11.0793   49.6944 C.ar        1 PRL       0.0016
     14 C14         9.3624   10.6424   47.5229 C.ar        1 PRL       0.0162
     15 N15        11.0939   14.8571   51.4698 N.pl3       1 PRL      -0.3324
     16 N16         7.5924    9.0001   44.7587 N.pl3       1 PRL      -0.3324
     17 H1         12.5648   10.6309   51.1507 H           1 PRL       0.0666
     18 H2         12.5594   12.8124   52.1750 H           1 PRL       0.0587
     19 H3          9.6037   14.1050   49.4607 H           1 PRL       0.0438
     20 H4          7.8867   11.2099   46.1208 H           1 PRL       0.0438
     21 H5          9.2363    7.2323   45.7587 H           1 PRL       0.0587
     22 H6         10.7495    7.5646   47.6049 H           1 PRL       0.0666
     23 H7         11.6872    9.0742   49.3832 H           1 PRL       0.0848
     24 H8         11.6910   15.0431   52.2121 H           1 PRL       0.1756
     25 H9         10.5112   15.5569   51.1345 H           1 PRL       0.1756
     26 H10         7.0180    9.7213   44.4574 H           1 PRL       0.1756
     27 H11         7.5538    8.1370   44.3162 H           1 PRL       0.1756
@<TRIPOS>BOND
     1     1    13  ar
     2     1     2  ar
     3     2     3  ar
     4     3    15   1
     5     3     4  ar
     6     4    11  ar
     7    11    10  ar
     8    11    13  ar
     9    13     9  ar
    10     9    12  ar
    11    12     8  ar
    12    12    14  ar
    13    14     5  ar
    14    14    10  ar
    15     5     6  ar
    16     6    16   1
    17     6     7  ar
    18     7     8  ar
    19     1    17   1
    20     2    18   1
    21     4    19   1
    22     5    20   1
    23     7    21   1
    24     8    22   1
    25     9    23   1
    26    15    24   1
    27    15    25   1
    28    16    26   1
    29    16    27   1
@<TRIPOS>SUBSTRUCTURE
     1  PRL      1

