@<TRIPOS>MOLECULE
1bcu_ligand_021
    27    29
SMALL
GAST_HUCK
****
This file was generated by PARSER (from files_GN.cpp)

@<TRIPOS>ATOM
      1 C1          8.1980   19.6615   62.9664 C.ar        1 PRL      -0.0483
      2 C2          7.0428   18.9979   62.5136 C.ar        1 PRL      -0.0317
      3 C3          6.7836   18.8868   61.1317 C.ar        1 PRL       0.0415
      4 C4          7.6862   19.4420   60.2028 C.ar        1 PRL      -0.0313
      5 C5         11.7236   21.7865   59.1423 C.ar        1 PRL      -0.0313
      6 C6         12.8873   22.4861   59.5221 C.ar        1 PRL       0.0415
      7 C7         13.1813   22.6712   60.8880 C.ar        1 PRL      -0.0317
      8 C8         12.3232   22.1507   61.8750 C.ar        1 PRL      -0.0483
      9 C9         10.2673   20.9092   62.4582 C.ar        1 PRL      -0.0279
     10 N10         9.7228   20.6269   59.7575 N.ar        1 PRL      -0.3286
     11 C11         8.8458   20.1033   60.6517 C.ar        1 PRL       0.0162
     12 C12        11.1547   21.4504   61.5033 C.ar        1 PRL       0.0016
     13 C13         9.1042   20.2251   62.0441 C.ar        1 PRL       0.0016
     14 C14        10.8545   21.2778   60.1260 C.ar        1 PRL       0.0162
     15 N15         5.6817   18.2465   60.7020 N.pl3       1 PRL      -0.3324
     16 N16        13.7085   22.9754   58.5785 N.pl3       1 PRL      -0.3324
     17 H1          8.3758   19.7259   63.9699 H           1 PRL       0.0666
     18 H2          6.3950   18.5939   63.1950 H           1 PRL       0.0587
     19 H3          7.5004   19.3637   59.1995 H           1 PRL       0.0438
     20 H4         11.5087   21.6507   58.1503 H           1 PRL       0.0438
     21 H5         14.0246   23.1780   61.1701 H           1 PRL       0.0587
     22 H6         12.5560   22.2884   62.8621 H           1 PRL       0.0666
     23 H7         10.4676   21.0144   63.4562 H           1 PRL       0.0848
     24 H8          5.0630   17.8579   61.3406 H           1 PRL       0.1756
     25 H9          5.5049   18.1670   59.7507 H           1 PRL       0.1756
     26 H10        13.4954   22.8386   57.6400 H           1 PRL       0.1756
     27 H11        14.5044   23.4768   58.8302 H           1 PRL       0.1756
@<TRIPOS>BOND
     1     1    13  ar
     2     1     2  ar
     3     2     3  ar
     4     3    15   1
     5     3     4  ar
     6     4    11  ar
     7    11    10  ar
     8    11    13  ar
     9    13     9  ar
    10     9    12  ar
    11    12     8  ar
    12    12    14  ar
    13    14     5  ar
    14    14    10  ar
    15     5     6  ar
    16     6    16   1
    17     6     7  ar
    18     7     8  ar
    19     1    17   1
    20     2    18   1
    21     4    19   1
    22     5    20   1
    23     7    21   1
    24     8    22   1
    25     9    23   1
    26    15    24   1
    27    15    25   1
    28    16    26   1
    29    16    27   1
@<TRIPOS>SUBSTRUCTURE
     1  PRL      1

