@<TRIPOS>MOLECULE
1bcu_ligand_017
    27    29
SMALL
GAST_HUCK
****
This file was generated by PARSER (from files_GN.cpp)

@<TRIPOS>ATOM
      1 C1          1.2355   13.9133   56.8718 C.ar        1 PRL      -0.0483
      2 C2          1.3624   12.9428   55.8606 C.ar        1 PRL      -0.0317
      3 C3          2.5171   12.9035   55.0531 C.ar        1 PRL       0.0415
      4 C4          3.5526   13.8349   55.2660 C.ar        1 PRL      -0.0313
      5 C5          5.4732   17.5337   57.6338 C.ar        1 PRL      -0.0313
      6 C6          5.4203   18.5291   58.6306 C.ar        1 PRL       0.0415
      7 C7          4.2721   18.6513   59.4385 C.ar        1 PRL      -0.0317
      8 C8          3.1836   17.7760   59.2632 C.ar        1 PRL      -0.0483
      9 C9          2.1726   15.8551   58.0794 C.ar        1 PRL      -0.0279
     10 N10         4.4355   15.6984   56.4913 N.ar        1 PRL      -0.3286
     11 C11         3.4327   14.8076   56.2780 C.ar        1 PRL       0.0162
     12 C12         3.2319   16.7685   58.2749 C.ar        1 PRL       0.0016
     13 C13         2.2642   14.8556   57.0864 C.ar        1 PRL       0.0016
     14 C14         4.3839   16.6581   57.4500 C.ar        1 PRL       0.0162
     15 N15         2.6310   11.9793   54.0836 N.pl3       1 PRL      -0.3324
     16 N16         6.4700   19.3506   58.8152 N.pl3       1 PRL      -0.3324
     17 H1          0.3851   13.9337   57.4389 H           1 PRL       0.0666
     18 H2          0.6054   12.2696   55.7116 H           1 PRL       0.0587
     19 H3          4.3938   13.8064   54.6847 H           1 PRL       0.0438
     20 H4          6.3057   17.4414   57.0456 H           1 PRL       0.0438
     21 H5          4.2279   19.3719   60.1655 H           1 PRL       0.0587
     22 H6          2.3645   17.8737   59.8684 H           1 PRL       0.0666
     23 H7          1.3347   15.9162   58.6642 H           1 PRL       0.0848
     24 H8          1.9190   11.3367   53.9344 H           1 PRL       0.1756
     25 H9          3.4249   11.9529   53.5261 H           1 PRL       0.1756
     26 H10         7.2739   19.2333   58.2832 H           1 PRL       0.1756
     27 H11         6.4382   20.0405   59.4976 H           1 PRL       0.1756
@<TRIPOS>BOND
     1     1    13  ar
     2     1     2  ar
     3     2     3  ar
     4     3    15   1
     5     3     4  ar
     6     4    11  ar
     7    11    10  ar
     8    11    13  ar
     9    13     9  ar
    10     9    12  ar
    11    12     8  ar
    12    12    14  ar
    13    14     5  ar
    14    14    10  ar
    15     5     6  ar
    16     6    16   1
    17     6     7  ar
    18     7     8  ar
    19     1    17   1
    20     2    18   1
    21     4    19   1
    22     5    20   1
    23     7    21   1
    24     8    22   1
    25     9    23   1
    26    15    24   1
    27    15    25   1
    28    16    26   1
    29    16    27   1
@<TRIPOS>SUBSTRUCTURE
     1  PRL      1

