@<TRIPOS>MOLECULE
1bcu_ligand_047
    27    29
SMALL
GAST_HUCK
****
This file was generated by PARSER (from files_GN.cpp)

@<TRIPOS>ATOM
      1 C1          1.0652   20.5387   50.3468 C.ar        1 PRL      -0.0483
      2 C2          0.8940   20.9834   51.6710 C.ar        1 PRL      -0.0317
      3 C3          1.8218   20.6221   52.6688 C.ar        1 PRL       0.0415
      4 C4          2.9365   19.8260   52.3356 C.ar        1 PRL      -0.0313
      5 C5          5.5212   17.3147   49.1753 C.ar        1 PRL      -0.0313
      6 C6          5.7612   16.8435   47.8684 C.ar        1 PRL       0.0415
      7 C7          4.8665   17.1714   46.8298 C.ar        1 PRL      -0.0317
      8 C8          3.7322   17.9620   47.0911 C.ar        1 PRL      -0.0483
      9 C9          2.3698   19.2488   48.6965 C.ar        1 PRL      -0.0279
     10 N10         4.1735   18.5912   50.6938 N.ar        1 PRL      -0.3286
     11 C11         3.1098   19.3733   51.0128 C.ar        1 PRL       0.0162
     12 C12         3.4883   18.4437   48.3948 C.ar        1 PRL       0.0016
     13 C13         2.1682   19.7261   50.0084 C.ar        1 PRL       0.0016
     14 C14         4.3951   18.1189   49.4399 C.ar        1 PRL       0.0162
     15 N15         1.6347   21.0288   53.9366 N.pl3       1 PRL      -0.3324
     16 N16         6.8440   16.0890   47.6092 N.pl3       1 PRL      -0.3324
     17 H1          0.3805   20.8075   49.6354 H           1 PRL       0.0666
     18 H2          0.0882   21.5682   51.9045 H           1 PRL       0.0587
     19 H3          3.6185   19.5690   53.0549 H           1 PRL       0.0438
     20 H4          6.1688   17.0803   49.9333 H           1 PRL       0.0438
     21 H5          5.0375   16.8377   45.8779 H           1 PRL       0.0587
     22 H6          3.0918   18.1888   46.3261 H           1 PRL       0.0666
     23 H7          1.7015   19.4892   47.9590 H           1 PRL       0.0848
     24 H8          0.8577   21.5627   54.1654 H           1 PRL       0.1756
     25 H9          2.2649   20.7739   54.6285 H           1 PRL       0.1756
     26 H10         7.4617   15.8618   48.3218 H           1 PRL       0.1756
     27 H11         7.0133   15.7756   46.7069 H           1 PRL       0.1756
@<TRIPOS>BOND
     1     1    13  ar
     2     1     2  ar
     3     2     3  ar
     4     3    15   1
     5     3     4  ar
     6     4    11  ar
     7    11    10  ar
     8    11    13  ar
     9    13     9  ar
    10     9    12  ar
    11    12     8  ar
    12    12    14  ar
    13    14     5  ar
    14    14    10  ar
    15     5     6  ar
    16     6    16   1
    17     6     7  ar
    18     7     8  ar
    19     1    17   1
    20     2    18   1
    21     4    19   1
    22     5    20   1
    23     7    21   1
    24     8    22   1
    25     9    23   1
    26    15    24   1
    27    15    25   1
    28    16    26   1
    29    16    27   1
@<TRIPOS>SUBSTRUCTURE
     1  PRL      1

