@<TRIPOS>MOLECULE
1bcu_ligand_084
    27    29
SMALL
GAST_HUCK
****
This file was generated by PARSER (from files_GN.cpp)

@<TRIPOS>ATOM
      1 C1         16.7947   17.2175   59.5185 C.ar        1 PRL      -0.0483
      2 C2         17.2534   16.7210   58.2849 C.ar        1 PRL      -0.0317
      3 C3         16.3412   16.2173   57.3365 C.ar        1 PRL       0.0415
      4 C4         14.9603   16.2250   57.6178 C.ar        1 PRL      -0.0313
      5 C5         11.2633   17.1323   60.5303 C.ar        1 PRL      -0.0313
      6 C6         10.7322   17.6238   61.7399 C.ar        1 PRL       0.0415
      7 C7         11.5960   18.1385   62.7277 C.ar        1 PRL      -0.0317
      8 C8         12.9873   18.1592   62.5140 C.ar        1 PRL      -0.0483
      9 C9         14.9136   17.6900   61.0453 C.ar        1 PRL      -0.0279
     10 N10        13.1658   16.7098   59.1328 N.ar        1 PRL      -0.3286
     11 C11        14.4948   16.7160   58.8532 C.ar        1 PRL       0.0162
     12 C12        13.5260   17.6760   61.3032 C.ar        1 PRL       0.0016
     13 C13        15.4146   17.2134   59.8150 C.ar        1 PRL       0.0016
     14 C14        12.6537   17.1641   60.3054 C.ar        1 PRL       0.0162
     15 N15        16.7922   15.7193   56.1714 N.pl3       1 PRL      -0.3324
     16 N16         9.4041   17.6096   61.9513 N.pl3       1 PRL      -0.3324
     17 H1         17.4713   17.5762   60.1975 H           1 PRL       0.0666
     18 H2         18.2563   16.7246   58.0837 H           1 PRL       0.0587
     19 H3         14.2929   15.8697   56.9269 H           1 PRL       0.0438
     20 H4         10.6391   16.7586   59.8096 H           1 PRL       0.0438
     21 H5         11.2176   18.5019   63.6055 H           1 PRL       0.0587
     22 H6         13.6001   18.5341   63.2427 H           1 PRL       0.0666
     23 H7         15.5592   18.0471   61.7531 H           1 PRL       0.0848
     24 H8         17.7449   15.6997   55.9878 H           1 PRL       0.1756
     25 H9         16.1688   15.3623   55.5194 H           1 PRL       0.1756
     26 H10         8.8061   17.2563   61.2737 H           1 PRL       0.1756
     27 H11         9.0395   17.9588   62.7801 H           1 PRL       0.1756
@<TRIPOS>BOND
     1     1    13  ar
     2     1     2  ar
     3     2     3  ar
     4     3    15   1
     5     3     4  ar
     6     4    11  ar
     7    11    10  ar
     8    11    13  ar
     9    13     9  ar
    10     9    12  ar
    11    12     8  ar
    12    12    14  ar
    13    14     5  ar
    14    14    10  ar
    15     5     6  ar
    16     6    16   1
    17     6     7  ar
    18     7     8  ar
    19     1    17   1
    20     2    18   1
    21     4    19   1
    22     5    20   1
    23     7    21   1
    24     8    22   1
    25     9    23   1
    26    15    24   1
    27    15    25   1
    28    16    26   1
    29    16    27   1
@<TRIPOS>SUBSTRUCTURE
     1  PRL      1

