@<TRIPOS>MOLECULE
1bcu_ligand_028
    27    29
SMALL
GAST_HUCK
****
This file was generated by PARSER (from files_GN.cpp)

@<TRIPOS>ATOM
      1 C1          3.8095   18.0560   45.7219 C.ar        1 PRL      -0.0483
      2 C2          2.9119   18.4971   44.7314 C.ar        1 PRL      -0.0317
      3 C3          2.2106   19.7085   44.8968 C.ar        1 PRL       0.0415
      4 C4          2.3960   20.4718   46.0676 C.ar        1 PRL      -0.0313
      5 C5          4.5542   21.2959   50.2609 C.ar        1 PRL      -0.0313
      6 C6          5.4538   20.9360   51.2844 C.ar        1 PRL       0.0415
      7 C7          6.1745   19.7291   51.1882 C.ar        1 PRL      -0.0317
      8 C8          6.0091   18.8889   50.0723 C.ar        1 PRL      -0.0483
      9 C9          4.9299   18.4392   47.8954 C.ar        1 PRL      -0.0279
     10 N10         3.5016   20.7924   48.1666 N.ar        1 PRL      -0.3286
     11 C11         3.2979   20.0379   47.0580 C.ar        1 PRL       0.0162
     12 C12         5.1144   19.2442   49.0418 C.ar        1 PRL       0.0016
     13 C13         4.0194   18.8253   46.8880 C.ar        1 PRL       0.0016
     14 C14         4.3742   20.4508   49.1487 C.ar        1 PRL       0.0162
     15 N15         1.3798   20.1440   43.9305 N.pl3       1 PRL      -0.3324
     16 N16         5.6306   21.7438   52.3444 N.pl3       1 PRL      -0.3324
     17 H1          4.3179   17.1806   45.5802 H           1 PRL       0.0666
     18 H2          2.7777   17.9335   43.8875 H           1 PRL       0.0587
     19 H3          1.8863   21.3506   46.1885 H           1 PRL       0.0438
     20 H4          4.0302   22.1746   50.3243 H           1 PRL       0.0438
     21 H5          6.8237   19.4561   51.9307 H           1 PRL       0.0587
     22 H6          6.5486   18.0191   50.0171 H           1 PRL       0.0666
     23 H7          5.4614   17.5716   47.7890 H           1 PRL       0.0848
     24 H8          1.2567   19.6148   43.1273 H           1 PRL       0.1756
     25 H9          0.9131   20.9903   44.0313 H           1 PRL       0.1756
     26 H10         5.1461   22.5791   52.4104 H           1 PRL       0.1756
     27 H11         6.2507   21.4909   53.0494 H           1 PRL       0.1756
@<TRIPOS>BOND
     1     1    13  ar
     2     1     2  ar
     3     2     3  ar
     4     3    15   1
     5     3     4  ar
     6     4    11  ar
     7    11    10  ar
     8    11    13  ar
     9    13     9  ar
    10     9    12  ar
    11    12     8  ar
    12    12    14  ar
    13    14     5  ar
    14    14    10  ar
    15     5     6  ar
    16     6    16   1
    17     6     7  ar
    18     7     8  ar
    19     1    17   1
    20     2    18   1
    21     4    19   1
    22     5    20   1
    23     7    21   1
    24     8    22   1
    25     9    23   1
    26    15    24   1
    27    15    25   1
    28    16    26   1
    29    16    27   1
@<TRIPOS>SUBSTRUCTURE
     1  PRL      1

