@<TRIPOS>MOLECULE
1bcu_ligand_024
    27    29
SMALL
GAST_HUCK
****
This file was generated by PARSER (from files_GN.cpp)

@<TRIPOS>ATOM
      1 C1         12.0136   16.9867   52.6931 C.ar        1 PRL      -0.0483
      2 C2         12.7950   17.0915   53.8588 C.ar        1 PRL      -0.0317
      3 C3         13.3228   15.9352   54.4674 C.ar        1 PRL       0.0415
      4 C4         13.0620   14.6679   53.9126 C.ar        1 PRL      -0.0313
      5 C5         11.0846   11.8575   50.5755 C.ar        1 PRL      -0.0313
      6 C6         10.3078   11.6718   49.4148 C.ar        1 PRL       0.0415
      7 C7          9.7405   12.7858   48.7639 C.ar        1 PRL      -0.0317
      8 C8          9.9519   14.0830   49.2637 C.ar        1 PRL      -0.0483
      9 C9         10.9776   15.5652   50.9535 C.ar        1 PRL      -0.0279
     10 N10        12.0391   13.3344   52.2038 N.ar        1 PRL      -0.3286
     11 C11        12.2837   14.5558   52.7434 C.ar        1 PRL       0.0162
     12 C12        10.7347   14.2807   50.4222 C.ar        1 PRL       0.0016
     13 C13        11.7532   15.7197   52.1246 C.ar        1 PRL       0.0016
     14 C14        11.2967   13.1545   51.0824 C.ar        1 PRL       0.0162
     15 N15        14.0748   16.0459   55.5753 N.pl3       1 PRL      -0.3324
     16 N16        10.1078   10.4336   48.9282 N.pl3       1 PRL      -0.3324
     17 H1         11.6397   17.8380   52.2645 H           1 PRL       0.0666
     18 H2         12.9817   18.0150   54.2584 H           1 PRL       0.0587
     19 H3         13.4411   13.8260   54.3540 H           1 PRL       0.0438
     20 H4         11.4960   11.0505   51.0516 H           1 PRL       0.0438
     21 H5          9.1728   12.6568   47.9217 H           1 PRL       0.0587
     22 H6          9.5301   14.8791   48.7807 H           1 PRL       0.0666
     23 H7         10.5878   16.3911   50.4895 H           1 PRL       0.0848
     24 H8         14.2403   16.9194   55.9626 H           1 PRL       0.1756
     25 H9         14.4447   15.2526   55.9944 H           1 PRL       0.1756
     26 H10        10.4990    9.6660   49.3749 H           1 PRL       0.1756
     27 H11         9.5715   10.3044   48.1292 H           1 PRL       0.1756
@<TRIPOS>BOND
     1     1    13  ar
     2     1     2  ar
     3     2     3  ar
     4     3    15   1
     5     3     4  ar
     6     4    11  ar
     7    11    10  ar
     8    11    13  ar
     9    13     9  ar
    10     9    12  ar
    11    12     8  ar
    12    12    14  ar
    13    14     5  ar
    14    14    10  ar
    15     5     6  ar
    16     6    16   1
    17     6     7  ar
    18     7     8  ar
    19     1    17   1
    20     2    18   1
    21     4    19   1
    22     5    20   1
    23     7    21   1
    24     8    22   1
    25     9    23   1
    26    15    24   1
    27    15    25   1
    28    16    26   1
    29    16    27   1
@<TRIPOS>SUBSTRUCTURE
     1  PRL      1

