@<TRIPOS>MOLECULE
1bcu_ligand_022
    27    29
SMALL
GAST_HUCK
****
This file was generated by PARSER (from files_GN.cpp)

@<TRIPOS>ATOM
      1 C1          3.5077   16.2014   58.0771 C.ar        1 PRL      -0.0483
      2 C2          2.3420   16.2778   58.8631 C.ar        1 PRL      -0.0317
      3 C3          1.7343   17.5233   59.1160 C.ar        1 PRL       0.0415
      4 C4          2.3011   18.6990   58.5849 C.ar        1 PRL      -0.0313
      5 C5          5.5867   20.9757   55.9375 C.ar        1 PRL      -0.0313
      6 C6          6.7248   20.9730   55.1051 C.ar        1 PRL       0.0415
      7 C7          7.3706   19.7564   54.8045 C.ar        1 PRL      -0.0317
      8 C8          6.8890   18.5453   55.3366 C.ar        1 PRL      -0.0483
      9 C9          5.2285   17.3458   56.7187 C.ar        1 PRL      -0.0279
     10 N10         3.9922   19.7628   57.2579 N.ar        1 PRL      -0.3286
     11 C11         3.4641   18.6311   57.7934 C.ar        1 PRL       0.0162
     12 C12         5.7518   18.5386   56.1728 C.ar        1 PRL       0.0016
     13 C13         4.0756   17.3751   57.5328 C.ar        1 PRL       0.0016
     14 C14         5.0976   19.7650   56.4689 C.ar        1 PRL       0.0162
     15 N15         0.6162   17.5909   59.8610 N.pl3       1 PRL      -0.3324
     16 N16         7.1957   22.1257   54.5952 N.pl3       1 PRL      -0.3324
     17 H1          3.9333   15.2867   57.9036 H           1 PRL       0.0666
     18 H2          1.9387   15.4223   59.2526 H           1 PRL       0.0587
     19 H3          1.8644   19.6043   58.7704 H           1 PRL       0.0438
     20 H4          5.1133   21.8578   56.1543 H           1 PRL       0.0438
     21 H5          8.1980   19.7456   54.2016 H           1 PRL       0.0587
     22 H6          7.3707   17.6706   55.1098 H           1 PRL       0.0666
     23 H7          5.6818   16.4510   56.5138 H           1 PRL       0.0848
     24 H8          0.2263   16.7817   60.2263 H           1 PRL       0.1756
     25 H9          0.1912   18.4469   60.0295 H           1 PRL       0.1756
     26 H10         6.7541   22.9651   54.7983 H           1 PRL       0.1756
     27 H11         7.9797   22.1211   54.0233 H           1 PRL       0.1756
@<TRIPOS>BOND
     1     1    13  ar
     2     1     2  ar
     3     2     3  ar
     4     3    15   1
     5     3     4  ar
     6     4    11  ar
     7    11    10  ar
     8    11    13  ar
     9    13     9  ar
    10     9    12  ar
    11    12     8  ar
    12    12    14  ar
    13    14     5  ar
    14    14    10  ar
    15     5     6  ar
    16     6    16   1
    17     6     7  ar
    18     7     8  ar
    19     1    17   1
    20     2    18   1
    21     4    19   1
    22     5    20   1
    23     7    21   1
    24     8    22   1
    25     9    23   1
    26    15    24   1
    27    15    25   1
    28    16    26   1
    29    16    27   1
@<TRIPOS>SUBSTRUCTURE
     1  PRL      1

