@<TRIPOS>MOLECULE
1bcu_ligand_032
    27    29
SMALL
GAST_HUCK
****
This file was generated by PARSER (from files_GN.cpp)

@<TRIPOS>ATOM
      1 C1          8.3726   16.1977   51.5190 C.ar        1 PRL      -0.0483
      2 C2          8.1830   16.8175   50.2697 C.ar        1 PRL      -0.0317
      3 C3          9.2593   17.4601   49.6275 C.ar        1 PRL       0.0415
      4 C4         10.5339   17.4609   50.2246 C.ar        1 PRL      -0.0313
      5 C5         13.4991   16.3584   53.8312 C.ar        1 PRL      -0.0313
      6 C6         13.7614   15.7558   55.0778 C.ar        1 PRL       0.0415
      7 C7         12.7245   15.1022   55.7724 C.ar        1 PRL      -0.0317
      8 C8         11.4285   15.0500   55.2272 C.ar        1 PRL      -0.0483
      9 C9          9.8719   15.6179   53.3948 C.ar        1 PRL      -0.0279
     10 N10        11.9530   16.8714   52.0687 N.ar        1 PRL      -0.3286
     11 C11        10.7294   16.8503   51.4793 C.ar        1 PRL       0.0162
     12 C12        11.1573   15.6489   53.9775 C.ar        1 PRL       0.0016
     13 C13         9.6421   16.2151   52.1370 C.ar        1 PRL       0.0016
     14 C14        12.2051   16.3042   53.2767 C.ar        1 PRL       0.0162
     15 N15         9.0730   18.0764   48.4479 N.pl3       1 PRL      -0.3324
     16 N16        14.9996   15.7997   55.6008 N.pl3       1 PRL      -0.3324
     17 H1          7.5779   15.7415   51.9734 H           1 PRL       0.0666
     18 H2          7.2577   16.8009   49.8344 H           1 PRL       0.0587
     19 H3         11.3144   17.9159   49.7484 H           1 PRL       0.0438
     20 H4         14.2527   16.8287   53.3249 H           1 PRL       0.0438
     21 H5         12.9065   14.6611   56.6774 H           1 PRL       0.0587
     22 H6         10.6866   14.5767   55.7495 H           1 PRL       0.0666
     23 H7          9.1010   15.1569   53.8870 H           1 PRL       0.0848
     24 H8          8.1966   18.0702   48.0317 H           1 PRL       0.1756
     25 H9          9.8259   18.4873   47.9908 H           1 PRL       0.1756
     26 H10        15.7142   16.2507   55.1229 H           1 PRL       0.1756
     27 H11        15.1824   15.3740   56.4536 H           1 PRL       0.1756
@<TRIPOS>BOND
     1     1    13  ar
     2     1     2  ar
     3     2     3  ar
     4     3    15   1
     5     3     4  ar
     6     4    11  ar
     7    11    10  ar
     8    11    13  ar
     9    13     9  ar
    10     9    12  ar
    11    12     8  ar
    12    12    14  ar
    13    14     5  ar
    14    14    10  ar
    15     5     6  ar
    16     6    16   1
    17     6     7  ar
    18     7     8  ar
    19     1    17   1
    20     2    18   1
    21     4    19   1
    22     5    20   1
    23     7    21   1
    24     8    22   1
    25     9    23   1
    26    15    24   1
    27    15    25   1
    28    16    26   1
    29    16    27   1
@<TRIPOS>SUBSTRUCTURE
     1  PRL      1

