@<TRIPOS>MOLECULE
1bcu_ligand_068
    27    29
SMALL
GAST_HUCK
****
This file was generated by PARSER (from files_GN.cpp)

@<TRIPOS>ATOM
      1 C1         11.6028   13.8391   53.9401 C.ar        1 PRL      -0.0483
      2 C2         12.6973   14.5227   54.5023 C.ar        1 PRL      -0.0317
      3 C3         13.0757   15.7878   54.0091 C.ar        1 PRL       0.0415
      4 C4         12.3545   16.3686   52.9465 C.ar        1 PRL      -0.0313
      5 C5          8.8520   16.2659   49.6738 C.ar        1 PRL      -0.0313
      6 C6          7.7556   15.6346   49.0515 C.ar        1 PRL       0.0415
      7 C7          7.3190   14.3764   49.5130 C.ar        1 PRL      -0.0317
      8 C8          7.9764   13.7438   50.5840 C.ar        1 PRL      -0.0483
      9 C9          9.7751   13.7623   52.2779 C.ar        1 PRL      -0.0279
     10 N10        10.5757   16.2424   51.3424 N.ar        1 PRL      -0.3286
     11 C11        11.2630   15.6866   52.3738 C.ar        1 PRL       0.0162
     12 C12         9.0802   14.3658   51.2077 C.ar        1 PRL       0.0016
     13 C13        10.8775   14.4132   52.8730 C.ar        1 PRL       0.0016
     14 C14         9.5151   15.6379   50.7467 C.ar        1 PRL       0.0162
     15 N15        14.1216   16.4361   54.5526 N.pl3       1 PRL      -0.3324
     16 N16         7.1293   16.2222   48.0153 N.pl3       1 PRL      -0.3324
     17 H1         11.3422   12.9221   54.3128 H           1 PRL       0.0666
     18 H2         13.2152   14.0933   55.2731 H           1 PRL       0.0587
     19 H3         12.6224   17.2888   52.5899 H           1 PRL       0.0438
     20 H4          9.1726   17.1796   49.3417 H           1 PRL       0.0438
     21 H5          6.5241   13.9111   49.0672 H           1 PRL       0.0587
     22 H6          7.6474   12.8279   50.9013 H           1 PRL       0.0666
     23 H7          9.4793   12.8443   52.6232 H           1 PRL       0.0848
     24 H8         14.6186   16.0328   55.2817 H           1 PRL       0.1756
     25 H9         14.3867   17.3059   54.2146 H           1 PRL       0.1756
     26 H10         7.4308   17.0817   47.6793 H           1 PRL       0.1756
     27 H11         6.3774   15.7800   47.5909 H           1 PRL       0.1756
@<TRIPOS>BOND
     1     1    13  ar
     2     1     2  ar
     3     2     3  ar
     4     3    15   1
     5     3     4  ar
     6     4    11  ar
     7    11    10  ar
     8    11    13  ar
     9    13     9  ar
    10     9    12  ar
    11    12     8  ar
    12    12    14  ar
    13    14     5  ar
    14    14    10  ar
    15     5     6  ar
    16     6    16   1
    17     6     7  ar
    18     7     8  ar
    19     1    17   1
    20     2    18   1
    21     4    19   1
    22     5    20   1
    23     7    21   1
    24     8    22   1
    25     9    23   1
    26    15    24   1
    27    15    25   1
    28    16    26   1
    29    16    27   1
@<TRIPOS>SUBSTRUCTURE
     1  PRL      1

