@<TRIPOS>MOLECULE
1bcu_ligand_045
    27    29
SMALL
GAST_HUCK
****
This file was generated by PARSER (from files_GN.cpp)

@<TRIPOS>ATOM
      1 C1          7.8768   19.5017   49.4526 C.ar        1 PRL      -0.0483
      2 C2          9.1223   18.8455   49.4561 C.ar        1 PRL      -0.0317
      3 C3          9.1985   17.4665   49.7376 C.ar        1 PRL       0.0415
      4 C4          8.0227   16.7422   50.0162 C.ar        1 PRL      -0.0313
      5 C5          3.2759   16.4716   50.5867 C.ar        1 PRL      -0.0313
      6 C6          1.9928   17.0541   50.5941 C.ar        1 PRL       0.0415
      7 C7          1.8475   18.4305   50.3276 C.ar        1 PRL      -0.0317
      8 C8          2.9761   19.2237   50.0478 C.ar        1 PRL      -0.0483
      9 C9          5.4234   19.4002   49.7409 C.ar        1 PRL      -0.0279
     10 N10         5.6427   16.6943   50.2870 N.ar        1 PRL      -0.3286
     11 C11         6.7742   17.3938   50.0157 C.ar        1 PRL       0.0162
     12 C12         4.2649   18.6461   50.0283 C.ar        1 PRL       0.0016
     13 C13         6.6933   18.7837   49.7315 C.ar        1 PRL       0.0016
     14 C14         4.4085   17.2593   50.3033 C.ar        1 PRL       0.0162
     15 N15        10.3894   16.8428   49.7439 N.pl3       1 PRL      -0.3324
     16 N16         0.9109   16.2978   50.8503 N.pl3       1 PRL      -0.3324
     17 H1          7.8409   20.5038   49.2482 H           1 PRL       0.0666
     18 H2          9.9724   19.3782   49.2541 H           1 PRL       0.0587
     19 H3          8.0743   15.7410   50.2234 H           1 PRL       0.0438
     20 H4          3.3861   15.4727   50.7819 H           1 PRL       0.0438
     21 H5          0.9203   18.8625   50.3360 H           1 PRL       0.0587
     22 H6          2.8506   20.2208   49.8556 H           1 PRL       0.0666
     23 H7          5.3419   20.4005   49.5366 H           1 PRL       0.0848
     24 H8         11.1997   17.3419   49.5587 H           1 PRL       0.1756
     25 H9         10.4420   15.8932   49.9364 H           1 PRL       0.1756
     26 H10         1.0102   15.3513   51.0404 H           1 PRL       0.1756
     27 H11         0.0266   16.6957   50.8338 H           1 PRL       0.1756
@<TRIPOS>BOND
     1     1    13  ar
     2     1     2  ar
     3     2     3  ar
     4     3    15   1
     5     3     4  ar
     6     4    11  ar
     7    11    10  ar
     8    11    13  ar
     9    13     9  ar
    10     9    12  ar
    11    12     8  ar
    12    12    14  ar
    13    14     5  ar
    14    14    10  ar
    15     5     6  ar
    16     6    16   1
    17     6     7  ar
    18     7     8  ar
    19     1    17   1
    20     2    18   1
    21     4    19   1
    22     5    20   1
    23     7    21   1
    24     8    22   1
    25     9    23   1
    26    15    24   1
    27    15    25   1
    28    16    26   1
    29    16    27   1
@<TRIPOS>SUBSTRUCTURE
     1  PRL      1

