@<TRIPOS>MOLECULE
1bcu_ligand_035
    27    29
SMALL
GAST_HUCK
****
This file was generated by PARSER (from files_GN.cpp)

@<TRIPOS>ATOM
      1 C1          5.5489   22.9569   57.7101 C.ar        1 PRL      -0.0483
      2 C2          4.7963   23.3201   58.8422 C.ar        1 PRL      -0.0317
      3 C3          4.1900   22.3290   59.6402 C.ar        1 PRL       0.0415
      4 C4          4.3463   20.9679   59.3070 C.ar        1 PRL      -0.0313
      5 C5          6.0632   17.4917   56.4846 C.ar        1 PRL      -0.0313
      6 C6          6.8046   17.0559   55.3678 C.ar        1 PRL       0.0415
      7 C7          7.4286   18.0004   54.5280 C.ar        1 PRL      -0.0317
      8 C8          7.3198   19.3761   54.8028 C.ar        1 PRL      -0.0483
      9 C9          6.4541   21.1907   56.2387 C.ar        1 PRL      -0.0279
     10 N10         5.2439   19.2886   57.8462 N.ar        1 PRL      -0.3286
     11 C11         5.1003   20.5988   58.1748 C.ar        1 PRL       0.0162
     12 C12         6.5851   19.8210   55.9234 C.ar        1 PRL       0.0016
     13 C13         5.7080   21.5970   57.3663 C.ar        1 PRL       0.0016
     14 C14         5.9525   18.8677   56.7663 C.ar        1 PRL       0.0162
     15 N15         3.4634   22.6846   60.7151 N.pl3       1 PRL      -0.3324
     16 N16         6.9194   15.7417   55.1056 N.pl3       1 PRL      -0.3324
     17 H1          5.9802   23.6896   57.1413 H           1 PRL       0.0666
     18 H2          4.6935   24.3103   59.0802 H           1 PRL       0.0587
     19 H3          3.9074   20.2454   59.8845 H           1 PRL       0.0438
     20 H4          5.6084   16.8079   57.0961 H           1 PRL       0.0438
     21 H5          7.9680   17.6920   53.7152 H           1 PRL       0.0587
     22 H6          7.7840   20.0466   54.1847 H           1 PRL       0.0666
     23 H7          6.9023   21.8947   55.6449 H           1 PRL       0.0848
     24 H8          3.3561   23.6225   60.9413 H           1 PRL       0.1756
     25 H9          3.0399   22.0058   61.2641 H           1 PRL       0.1756
     26 H10         6.4923   15.0902   55.6844 H           1 PRL       0.1756
     27 H11         7.4306   15.4411   54.3376 H           1 PRL       0.1756
@<TRIPOS>BOND
     1     1    13  ar
     2     1     2  ar
     3     2     3  ar
     4     3    15   1
     5     3     4  ar
     6     4    11  ar
     7    11    10  ar
     8    11    13  ar
     9    13     9  ar
    10     9    12  ar
    11    12     8  ar
    12    12    14  ar
    13    14     5  ar
    14    14    10  ar
    15     5     6  ar
    16     6    16   1
    17     6     7  ar
    18     7     8  ar
    19     1    17   1
    20     2    18   1
    21     4    19   1
    22     5    20   1
    23     7    21   1
    24     8    22   1
    25     9    23   1
    26    15    24   1
    27    15    25   1
    28    16    26   1
    29    16    27   1
@<TRIPOS>SUBSTRUCTURE
     1  PRL      1

