@<TRIPOS>MOLECULE
1bcu_ligand_019
    27    29
SMALL
GAST_HUCK
****
This file was generated by PARSER (from files_GN.cpp)

@<TRIPOS>ATOM
      1 C1          5.8662   17.0826   48.4437 C.ar        1 PRL      -0.0483
      2 C2          6.6902   15.9743   48.1758 C.ar        1 PRL      -0.0317
      3 C3          6.7359   15.4175   46.8825 C.ar        1 PRL       0.0415
      4 C4          5.9611   15.9821   45.8495 C.ar        1 PRL      -0.0313
      5 C5          2.7901   19.1986   44.2374 C.ar        1 PRL      -0.0313
      6 C6          1.9550   20.3177   44.4306 C.ar        1 PRL       0.0415
      7 C7          1.8689   20.9170   45.7019 C.ar        1 PRL      -0.0317
      8 C8          2.6116   20.4018   46.7805 C.ar        1 PRL      -0.0483
      9 C9          4.2304   18.7516   47.6463 C.ar        1 PRL      -0.0279
     10 N10         4.3736   17.6259   45.1186 N.ar        1 PRL      -0.3286
     11 C11         5.1315   17.0903   46.1112 C.ar        1 PRL       0.0162
     12 C12         3.4596   19.2898   46.5938 C.ar        1 PRL       0.0016
     13 C13         5.0769   17.6465   47.4179 C.ar        1 PRL       0.0016
     14 C14         3.5494   18.6886   45.3096 C.ar        1 PRL       0.0162
     15 N15         7.5065   14.3429   46.6394 N.pl3       1 PRL      -0.3324
     16 N16         1.2488   20.8200   43.4028 N.pl3       1 PRL      -0.3324
     17 H1          5.8443   17.4710   49.3897 H           1 PRL       0.0666
     18 H2          7.2524   15.5721   48.9299 H           1 PRL       0.0587
     19 H3          5.9924   15.5795   44.9090 H           1 PRL       0.0438
     20 H4          2.8629   18.7663   43.3125 H           1 PRL       0.0438
     21 H5          1.2681   21.7319   45.8453 H           1 PRL       0.0587
     22 H6          2.5353   20.8479   47.6968 H           1 PRL       0.0666
     23 H7          4.1739   19.1642   48.5807 H           1 PRL       0.0848
     24 H8          8.0229   13.9445   47.3572 H           1 PRL       0.1756
     25 H9          7.5302   13.9507   45.7525 H           1 PRL       0.1756
     26 H10         1.3131   20.4080   42.5298 H           1 PRL       0.1756
     27 H11         0.6807   21.5969   43.5273 H           1 PRL       0.1756
@<TRIPOS>BOND
     1     1    13  ar
     2     1     2  ar
     3     2     3  ar
     4     3    15   1
     5     3     4  ar
     6     4    11  ar
     7    11    10  ar
     8    11    13  ar
     9    13     9  ar
    10     9    12  ar
    11    12     8  ar
    12    12    14  ar
    13    14     5  ar
    14    14    10  ar
    15     5     6  ar
    16     6    16   1
    17     6     7  ar
    18     7     8  ar
    19     1    17   1
    20     2    18   1
    21     4    19   1
    22     5    20   1
    23     7    21   1
    24     8    22   1
    25     9    23   1
    26    15    24   1
    27    15    25   1
    28    16    26   1
    29    16    27   1
@<TRIPOS>SUBSTRUCTURE
     1  PRL      1

