@<TRIPOS>MOLECULE
1bcu_ligand_014
    27    29
SMALL
GAST_HUCK
****
This file was generated by PARSER (from files_GN.cpp)

@<TRIPOS>ATOM
      1 C1          3.8589   21.3326   59.7697 C.ar        1 PRL      -0.0483
      2 C2          5.0061   22.0679   59.4137 C.ar        1 PRL      -0.0317
      3 C3          5.9510   21.5197   58.5236 C.ar        1 PRL       0.0415
      4 C4          5.7451   20.2357   57.9821 C.ar        1 PRL      -0.0313
      5 C5          3.1631   16.2306   57.5105 C.ar        1 PRL      -0.0313
      6 C6          2.0291   15.4456   57.8015 C.ar        1 PRL       0.0415
      7 C7          1.0594   15.9236   58.7052 C.ar        1 PRL      -0.0317
      8 C8          1.2045   17.1904   59.2990 C.ar        1 PRL      -0.0483
      9 C9          2.5085   19.2734   59.5614 C.ar        1 PRL      -0.0279
     10 N10         4.3968   18.2637   57.8035 N.ar        1 PRL      -0.3286
     11 C11         4.5970   19.4976   58.3315 C.ar        1 PRL       0.0162
     12 C12         2.3282   17.9914   58.9990 C.ar        1 PRL       0.0016
     13 C13         3.6458   20.0437   59.2349 C.ar        1 PRL       0.0016
     14 C14         3.3143   17.4995   58.1013 C.ar        1 PRL       0.0162
     15 N15         7.0501   22.2203   58.1924 N.pl3       1 PRL      -0.3324
     16 N16         1.8673   14.2506   57.2090 N.pl3       1 PRL      -0.3324
     17 H1          3.1847   21.7459   60.4184 H           1 PRL       0.0666
     18 H2          5.1510   23.0000   59.8130 H           1 PRL       0.0587
     19 H3          6.4311   19.8368   57.3346 H           1 PRL       0.0438
     20 H4          3.8661   15.8877   56.8501 H           1 PRL       0.0438
     21 H5          0.2347   15.3588   58.9253 H           1 PRL       0.0587
     22 H6          0.4869   17.5217   59.9490 H           1 PRL       0.0666
     23 H7          1.8091   19.6491   60.2079 H           1 PRL       0.0848
     24 H8          7.1894   23.1057   58.5624 H           1 PRL       0.1756
     25 H9          7.7000   21.8466   57.5748 H           1 PRL       0.1756
     26 H10         2.5326   13.9239   56.5822 H           1 PRL       0.1756
     27 H11         1.0849   13.7118   57.4066 H           1 PRL       0.1756
@<TRIPOS>BOND
     1     1    13  ar
     2     1     2  ar
     3     2     3  ar
     4     3    15   1
     5     3     4  ar
     6     4    11  ar
     7    11    10  ar
     8    11    13  ar
     9    13     9  ar
    10     9    12  ar
    11    12     8  ar
    12    12    14  ar
    13    14     5  ar
    14    14    10  ar
    15     5     6  ar
    16     6    16   1
    17     6     7  ar
    18     7     8  ar
    19     1    17   1
    20     2    18   1
    21     4    19   1
    22     5    20   1
    23     7    21   1
    24     8    22   1
    25     9    23   1
    26    15    24   1
    27    15    25   1
    28    16    26   1
    29    16    27   1
@<TRIPOS>SUBSTRUCTURE
     1  PRL      1

