@<TRIPOS>MOLECULE
1bcu_ligand_079
    27    29
SMALL
GAST_HUCK
****
This file was generated by PARSER (from files_GN.cpp)

@<TRIPOS>ATOM
      1 C1          6.1491   10.5951   46.9298 C.ar        1 PRL      -0.0483
      2 C2          6.5602    9.4694   46.1911 C.ar        1 PRL      -0.0317
      3 C3          7.9299    9.2353   45.9553 C.ar        1 PRL       0.0415
      4 C4          8.8915   10.1325   46.4609 C.ar        1 PRL      -0.0313
      5 C5         10.1028   14.0870   48.8752 C.ar        1 PRL      -0.0313
      6 C6          9.7725   15.2377   49.6181 C.ar        1 PRL       0.0415
      7 C7          8.4212   15.5248   49.8972 C.ar        1 PRL      -0.0317
      8 C8          7.4031   14.6713   49.4319 C.ar        1 PRL      -0.0483
      9 C9          6.7391   12.6395   48.1884 C.ar        1 PRL      -0.0279
     10 N10         9.4142   12.1288   47.6777 N.ar        1 PRL      -0.3286
     11 C11         8.4861   11.2611   47.1993 C.ar        1 PRL       0.0162
     12 C12         7.7270   13.5201   48.6799 C.ar        1 PRL       0.0016
     13 C13         7.1058   11.4989   47.4414 C.ar        1 PRL       0.0016
     14 C14         9.0902   13.2312   48.4021 C.ar        1 PRL       0.0162
     15 N15         8.3190    8.1595   45.2485 N.pl3       1 PRL      -0.3324
     16 N16        10.7440   16.0635   50.0470 N.pl3       1 PRL      -0.3324
     17 H1          5.1500   10.7490   47.0898 H           1 PRL       0.0666
     18 H2          5.8563    8.8230   45.8255 H           1 PRL       0.0587
     19 H3          9.8874    9.9670   46.2896 H           1 PRL       0.0438
     20 H4         11.0807   13.8755   48.6706 H           1 PRL       0.0438
     21 H5          8.1721   16.3579   50.4364 H           1 PRL       0.0587
     22 H6          6.4275   14.8970   49.6433 H           1 PRL       0.0666
     23 H7          5.7498   12.8304   48.3730 H           1 PRL       0.0848
     24 H8          7.6585    7.5405   44.8994 H           1 PRL       0.1756
     25 H9          9.2623    7.9988   45.0869 H           1 PRL       0.1756
     26 H10        11.6730   15.8693   49.8438 H           1 PRL       0.1756
     27 H11        10.5191   16.8604   50.5531 H           1 PRL       0.1756
@<TRIPOS>BOND
     1     1    13  ar
     2     1     2  ar
     3     2     3  ar
     4     3    15   1
     5     3     4  ar
     6     4    11  ar
     7    11    10  ar
     8    11    13  ar
     9    13     9  ar
    10     9    12  ar
    11    12     8  ar
    12    12    14  ar
    13    14     5  ar
    14    14    10  ar
    15     5     6  ar
    16     6    16   1
    17     6     7  ar
    18     7     8  ar
    19     1    17   1
    20     2    18   1
    21     4    19   1
    22     5    20   1
    23     7    21   1
    24     8    22   1
    25     9    23   1
    26    15    24   1
    27    15    25   1
    28    16    26   1
    29    16    27   1
@<TRIPOS>SUBSTRUCTURE
     1  PRL      1

