@<TRIPOS>MOLECULE
1bcu_ligand_036
    27    29
SMALL
GAST_HUCK
****
This file was generated by PARSER (from files_GN.cpp)

@<TRIPOS>ATOM
      1 C1          3.5969   21.0263   53.8467 C.ar        1 PRL      -0.0483
      2 C2          2.2539   21.0048   53.4286 C.ar        1 PRL      -0.0317
      3 C3          1.9324   21.1892   52.0689 C.ar        1 PRL       0.0415
      4 C4          2.9554   21.3803   51.1206 C.ar        1 PRL      -0.0313
      5 C5          7.5781   21.8405   49.9552 C.ar        1 PRL      -0.0313
      6 C6          8.9448   21.8618   50.2960 C.ar        1 PRL       0.0415
      7 C7          9.3321   21.6873   51.6390 C.ar        1 PRL      -0.0317
      8 C8          8.3642   21.4966   52.6422 C.ar        1 PRL      -0.0483
      9 C9          5.9902   21.2669   53.2799 C.ar        1 PRL      -0.0279
     10 N10         5.2876   21.5947   50.6207 N.ar        1 PRL      -0.3286
     11 C11         4.3008   21.4044   51.5333 C.ar        1 PRL       0.0162
     12 C12         6.9938   21.4682   52.3080 C.ar        1 PRL       0.0016
     13 C13         4.6297   21.2311   52.9051 C.ar        1 PRL       0.0016
     14 C14         6.6036   21.6375   50.9521 C.ar        1 PRL       0.0162
     15 N15         0.6470   21.1955   51.6807 N.pl3       1 PRL      -0.3324
     16 N16         9.8784   22.0421   49.3445 N.pl3       1 PRL      -0.3324
     17 H1          3.8123   20.8952   54.8386 H           1 PRL       0.0666
     18 H2          1.5140   20.8610   54.1219 H           1 PRL       0.0587
     19 H3          2.7209   21.5078   50.1325 H           1 PRL       0.0438
     20 H4          7.2937   21.9671   48.9814 H           1 PRL       0.0438
     21 H5         10.3206   21.6947   51.8914 H           1 PRL       0.0587
     22 H6          8.6683   21.3712   53.6113 H           1 PRL       0.0666
     23 H7          6.2505   21.1409   54.2618 H           1 PRL       0.0848
     24 H8         -0.0477   21.0847   52.3429 H           1 PRL       0.1756
     25 H9          0.4138   21.3319   50.7480 H           1 PRL       0.1756
     26 H10         9.6136   22.1606   48.4182 H           1 PRL       0.1756
     27 H11        10.8201   22.0518   49.5815 H           1 PRL       0.1756
@<TRIPOS>BOND
     1     1    13  ar
     2     1     2  ar
     3     2     3  ar
     4     3    15   1
     5     3     4  ar
     6     4    11  ar
     7    11    10  ar
     8    11    13  ar
     9    13     9  ar
    10     9    12  ar
    11    12     8  ar
    12    12    14  ar
    13    14     5  ar
    14    14    10  ar
    15     5     6  ar
    16     6    16   1
    17     6     7  ar
    18     7     8  ar
    19     1    17   1
    20     2    18   1
    21     4    19   1
    22     5    20   1
    23     7    21   1
    24     8    22   1
    25     9    23   1
    26    15    24   1
    27    15    25   1
    28    16    26   1
    29    16    27   1
@<TRIPOS>SUBSTRUCTURE
     1  PRL      1

