@<TRIPOS>MOLECULE
1bcu_ligand_023
    27    29
SMALL
GAST_HUCK
****
This file was generated by PARSER (from files_GN.cpp)

@<TRIPOS>ATOM
      1 C1          3.5077   19.3431   51.6303 C.ar        1 PRL      -0.0483
      2 C2          2.5128   20.1144   52.2551 C.ar        1 PRL      -0.0317
      3 C3          1.4591   20.6588   51.4955 C.ar        1 PRL       0.0415
      4 C4          1.3816   20.4084   50.1105 C.ar        1 PRL      -0.0313
      5 C5          3.1345   18.4650   46.0812 C.ar        1 PRL      -0.0313
      6 C6          4.0973   17.6865   45.4037 C.ar        1 PRL       0.0415
      7 C7          5.1721   17.1223   46.1178 C.ar        1 PRL      -0.0317
      8 C8          5.2836   17.3249   47.5042 C.ar        1 PRL      -0.0483
      9 C9          4.4292   18.3386   49.5763 C.ar        1 PRL      -0.0279
     10 N10         2.3203   19.4147   48.1380 N.ar        1 PRL      -0.3286
     11 C11         2.3776   19.6407   49.4773 C.ar        1 PRL       0.0162
     12 C12         4.3349   18.1127   48.1879 C.ar        1 PRL       0.0016
     13 C13         3.4505   19.1048   50.2403 C.ar        1 PRL       0.0016
     14 C14         3.2488   18.6811   47.4697 C.ar        1 PRL       0.0162
     15 N15         0.5410   21.4384   52.0900 N.pl3       1 PRL      -0.3324
     16 N16         3.9818   17.4686   44.0821 N.pl3       1 PRL      -0.3324
     17 H1          4.2730   18.9648   52.1956 H           1 PRL       0.0666
     18 H2          2.5683   20.2900   53.2619 H           1 PRL       0.0587
     19 H3          0.6040   20.7881   49.5625 H           1 PRL       0.0438
     20 H4          2.3490   18.8706   45.5638 H           1 PRL       0.0438
     21 H5          5.8681   16.5463   45.6397 H           1 PRL       0.0587
     22 H6          6.0521   16.8819   48.0137 H           1 PRL       0.0666
     23 H7          5.2096   17.9393   50.1053 H           1 PRL       0.0848
     24 H8          0.5856   21.6014   53.0454 H           1 PRL       0.1756
     25 H9         -0.1468   21.8657   51.5569 H           1 PRL       0.1756
     26 H10         3.2136   17.8194   43.6047 H           1 PRL       0.1756
     27 H11         4.6533   16.9585   43.5987 H           1 PRL       0.1756
@<TRIPOS>BOND
     1     1    13  ar
     2     1     2  ar
     3     2     3  ar
     4     3    15   1
     5     3     4  ar
     6     4    11  ar
     7    11    10  ar
     8    11    13  ar
     9    13     9  ar
    10     9    12  ar
    11    12     8  ar
    12    12    14  ar
    13    14     5  ar
    14    14    10  ar
    15     5     6  ar
    16     6    16   1
    17     6     7  ar
    18     7     8  ar
    19     1    17   1
    20     2    18   1
    21     4    19   1
    22     5    20   1
    23     7    21   1
    24     8    22   1
    25     9    23   1
    26    15    24   1
    27    15    25   1
    28    16    26   1
    29    16    27   1
@<TRIPOS>SUBSTRUCTURE
     1  PRL      1

