@<TRIPOS>MOLECULE
1bcu_ligand_043
    27    29
SMALL
GAST_HUCK
****
This file was generated by PARSER (from files_GN.cpp)

@<TRIPOS>ATOM
      1 C1          1.3959   19.3301   45.5032 C.ar        1 PRL      -0.0483
      2 C2          2.2508   18.7995   44.5182 C.ar        1 PRL      -0.0317
      3 C3          3.5372   18.3429   44.8685 C.ar        1 PRL       0.0415
      4 C4          3.9783   18.4349   46.2034 C.ar        1 PRL      -0.0313
      5 C5          3.2771   19.6011   50.7985 C.ar        1 PRL      -0.0313
      6 C6          2.4790   20.1265   51.8345 C.ar        1 PRL       0.0415
      7 C7          1.1776   20.5890   51.5525 C.ar        1 PRL      -0.0317
      8 C8          0.6725   20.5298   50.2401 C.ar        1 PRL      -0.0483
      9 C9          0.9956   19.9257   47.8679 C.ar        1 PRL      -0.0279
     10 N10         3.5495   19.0461   48.4806 N.ar        1 PRL      -0.3286
     11 C11         3.1271   18.9665   47.1917 C.ar        1 PRL       0.0162
     12 C12         1.4653   20.0052   49.1965 C.ar        1 PRL       0.0016
     13 C13         1.8228   19.4124   46.8464 C.ar        1 PRL       0.0016
     14 C14         2.7780   19.5423   49.4825 C.ar        1 PRL       0.0162
     15 N15         4.3482   17.8101   43.9383 N.pl3       1 PRL      -0.3324
     16 N16         2.9569   20.1828   53.0894 N.pl3       1 PRL      -0.3324
     17 H1          0.4619   19.6499   45.2325 H           1 PRL       0.0666
     18 H2          1.9310   18.7459   43.5473 H           1 PRL       0.0587
     19 H3          4.9153   18.1113   46.4581 H           1 PRL       0.0438
     20 H4          4.2213   19.2612   51.0010 H           1 PRL       0.0438
     21 H5          0.5927   20.9710   52.2993 H           1 PRL       0.0587
     22 H6         -0.2714   20.8744   50.0517 H           1 PRL       0.0666
     23 H7          0.0481   20.2419   47.6419 H           1 PRL       0.0848
     24 H8          4.0541   17.7326   43.0175 H           1 PRL       0.1756
     25 H9          5.2293   17.4943   44.1945 H           1 PRL       0.1756
     26 H10         3.8523   19.8625   53.2831 H           1 PRL       0.1756
     27 H11         2.4051   20.5372   53.8049 H           1 PRL       0.1756
@<TRIPOS>BOND
     1     1    13  ar
     2     1     2  ar
     3     2     3  ar
     4     3    15   1
     5     3     4  ar
     6     4    11  ar
     7    11    10  ar
     8    11    13  ar
     9    13     9  ar
    10     9    12  ar
    11    12     8  ar
    12    12    14  ar
    13    14     5  ar
    14    14    10  ar
    15     5     6  ar
    16     6    16   1
    17     6     7  ar
    18     7     8  ar
    19     1    17   1
    20     2    18   1
    21     4    19   1
    22     5    20   1
    23     7    21   1
    24     8    22   1
    25     9    23   1
    26    15    24   1
    27    15    25   1
    28    16    26   1
    29    16    27   1
@<TRIPOS>SUBSTRUCTURE
     1  PRL      1

