@<TRIPOS>MOLECULE
1bcu_ligand_088
    27    29
SMALL
GAST_HUCK
****
This file was generated by PARSER (from files_GN.cpp)

@<TRIPOS>ATOM
      1 C1         14.6220   11.1636   54.3732 C.ar        1 PRL      -0.0483
      2 C2         14.6099   11.0327   52.9720 C.ar        1 PRL      -0.0317
      3 C3         13.6846   11.7610   52.1970 C.ar        1 PRL       0.0415
      4 C4         12.7782   12.6381   52.8267 C.ar        1 PRL      -0.0313
      5 C5         10.9061   14.6481   56.7547 C.ar        1 PRL      -0.0313
      6 C6         10.8695   14.8368   58.1515 C.ar        1 PRL       0.0415
      7 C7         11.7699   14.1339   58.9773 C.ar        1 PRL      -0.0317
      8 C8         12.7014   13.2412   58.4163 C.ar        1 PRL      -0.0483
      9 C9         13.6760   12.1756   56.4153 C.ar        1 PRL      -0.0279
     10 N10        11.8975   13.5997   54.8392 N.ar        1 PRL      -0.3286
     11 C11        12.7822   12.7686   54.2295 C.ar        1 PRL       0.0162
     12 C12        12.7498   13.0518   57.0187 C.ar        1 PRL       0.0016
     13 C13        13.7060   12.0252   55.0132 C.ar        1 PRL       0.0016
     14 C14        11.8466   13.7667   56.1861 C.ar        1 PRL       0.0162
     15 N15        13.6623   11.6082   50.8616 N.pl3       1 PRL      -0.3324
     16 N16         9.9835   15.6895   58.6961 N.pl3       1 PRL      -0.3324
     17 H1         15.2981   10.6250   54.9210 H           1 PRL       0.0666
     18 H2         15.2759   10.4015   52.5204 H           1 PRL       0.0587
     19 H3         12.1106   13.1766   52.2673 H           1 PRL       0.0438
     20 H4         10.2550   15.1572   56.1499 H           1 PRL       0.0438
     21 H5         11.7527   14.2703   59.9912 H           1 PRL       0.0587
     22 H6         13.3463   12.7373   59.0303 H           1 PRL       0.0666
     23 H7         14.3311   11.6468   56.9980 H           1 PRL       0.0848
     24 H8         14.2764   10.9914   50.4331 H           1 PRL       0.1756
     25 H9         13.0206   12.0994   50.3250 H           1 PRL       0.1756
     26 H10         9.3631   16.1752   58.1305 H           1 PRL       0.1756
     27 H11         9.9681   15.8265   59.6564 H           1 PRL       0.1756
@<TRIPOS>BOND
     1     1    13  ar
     2     1     2  ar
     3     2     3  ar
     4     3    15   1
     5     3     4  ar
     6     4    11  ar
     7    11    10  ar
     8    11    13  ar
     9    13     9  ar
    10     9    12  ar
    11    12     8  ar
    12    12    14  ar
    13    14     5  ar
    14    14    10  ar
    15     5     6  ar
    16     6    16   1
    17     6     7  ar
    18     7     8  ar
    19     1    17   1
    20     2    18   1
    21     4    19   1
    22     5    20   1
    23     7    21   1
    24     8    22   1
    25     9    23   1
    26    15    24   1
    27    15    25   1
    28    16    26   1
    29    16    27   1
@<TRIPOS>SUBSTRUCTURE
     1  PRL      1

