@<TRIPOS>MOLECULE
1bcu_ligand_020
    27    29
SMALL
GAST_HUCK
****
This file was generated by PARSER (from files_GN.cpp)

@<TRIPOS>ATOM
      1 C1          6.2090   15.3479   46.0488 C.ar        1 PRL      -0.0483
      2 C2          6.4345   14.2014   45.2646 C.ar        1 PRL      -0.0317
      3 C3          5.6818   13.9814   44.0930 C.ar        1 PRL       0.0415
      4 C4          4.7094   14.9217   43.6966 C.ar        1 PRL      -0.0313
      5 C5          2.2582   18.9839   44.3780 C.ar        1 PRL      -0.0313
      6 C6          1.9869   20.1582   45.1088 C.ar        1 PRL       0.0415
      7 C7          2.7052   20.4292   46.2907 C.ar        1 PRL      -0.0317
      8 C8          3.6900   19.5346   46.7460 C.ar        1 PRL      -0.0483
      9 C9          4.9589   17.4410   46.4325 C.ar        1 PRL      -0.0279
     10 N10         3.5280   16.9675   44.1088 N.ar        1 PRL      -0.3286
     11 C11         4.4755   16.0687   44.4806 C.ar        1 PRL       0.0162
     12 C12         3.9731   18.3594   46.0163 C.ar        1 PRL       0.0016
     13 C13         5.2256   16.2857   45.6682 C.ar        1 PRL       0.0016
     14 C14         3.2517   18.0899   44.8218 C.ar        1 PRL       0.0162
     15 N15         5.8853   12.8698   43.3651 N.pl3       1 PRL      -0.3324
     16 N16         1.0500   21.0220   44.6790 N.pl3       1 PRL      -0.3324
     17 H1          6.7621   15.4901   46.8981 H           1 PRL       0.0666
     18 H2          7.1464   13.5266   45.5542 H           1 PRL       0.0587
     19 H3          4.1676   14.7706   42.8413 H           1 PRL       0.0438
     20 H4          1.7380   18.7826   43.5199 H           1 PRL       0.0438
     21 H5          2.5175   21.2827   46.8228 H           1 PRL       0.0587
     22 H6          4.2018   19.7469   47.6065 H           1 PRL       0.0666
     23 H7          5.4859   17.6143   47.2941 H           1 PRL       0.0848
     24 H8          6.5433   12.2159   43.6501 H           1 PRL       0.1756
     25 H9          5.3626   12.7088   42.5636 H           1 PRL       0.1756
     26 H10         0.5522   20.8372   43.8667 H           1 PRL       0.1756
     27 H11         0.8728   21.8352   45.1782 H           1 PRL       0.1756
@<TRIPOS>BOND
     1     1    13  ar
     2     1     2  ar
     3     2     3  ar
     4     3    15   1
     5     3     4  ar
     6     4    11  ar
     7    11    10  ar
     8    11    13  ar
     9    13     9  ar
    10     9    12  ar
    11    12     8  ar
    12    12    14  ar
    13    14     5  ar
    14    14    10  ar
    15     5     6  ar
    16     6    16   1
    17     6     7  ar
    18     7     8  ar
    19     1    17   1
    20     2    18   1
    21     4    19   1
    22     5    20   1
    23     7    21   1
    24     8    22   1
    25     9    23   1
    26    15    24   1
    27    15    25   1
    28    16    26   1
    29    16    27   1
@<TRIPOS>SUBSTRUCTURE
     1  PRL      1

