@<TRIPOS>MOLECULE
1bcu_ligand_002
    27    29
SMALL
GAST_HUCK
****
This file was generated by PARSER (from files_GN.cpp)

@<TRIPOS>ATOM
      1 C1          6.7830   21.2034   51.1456 C.ar        1 PRL      -0.0483
      2 C2          6.8520   19.8659   51.5782 C.ar        1 PRL      -0.0317
      3 C3          7.8458   19.0042   51.0714 C.ar        1 PRL       0.0415
      4 C4          8.7864   19.4886   50.1397 C.ar        1 PRL      -0.0313
      5 C5         10.5585   22.9813   47.3765 C.ar        1 PRL      -0.0313
      6 C6         10.5557   24.3111   46.9079 C.ar        1 PRL       0.0415
      7 C7          9.5843   25.2177   47.3782 C.ar        1 PRL      -0.0317
      8 C8          8.6142   24.8019   48.3085 C.ar        1 PRL      -0.0483
      9 C9          7.6670   23.0209   49.7299 C.ar        1 PRL      -0.0279
     10 N10         9.6129   21.2885   48.7877 N.ar        1 PRL      -0.3286
     11 C11         8.7184   20.8251   49.6989 C.ar        1 PRL       0.0162
     12 C12         8.6142   23.4748   48.7883 C.ar        1 PRL       0.0016
     13 C13         7.7090   21.6916   50.1994 C.ar        1 PRL       0.0016
     14 C14         9.5987   22.5632   48.3192 C.ar        1 PRL       0.0162
     15 N15         7.8865   17.7208   51.4698 N.pl3       1 PRL      -0.3324
     16 N16        11.4805   24.7176   46.0200 N.pl3       1 PRL      -0.3324
     17 H1          6.0532   21.8145   51.5212 H           1 PRL       0.0666
     18 H2          6.1723   19.5229   52.2610 H           1 PRL       0.0587
     19 H3          9.5161   18.8692   49.7759 H           1 PRL       0.0438
     20 H4         11.2629   22.3188   47.0390 H           1 PRL       0.0438
     21 H5          9.5799   26.1857   47.0468 H           1 PRL       0.0587
     22 H6          7.9151   25.4722   48.6380 H           1 PRL       0.0666
     23 H7          6.9460   23.6603   50.0758 H           1 PRL       0.0848
     24 H8          7.2275   17.3866   52.0984 H           1 PRL       0.1756
     25 H9          8.5620   17.1214   51.1159 H           1 PRL       0.1756
     26 H10        12.1504   24.0963   45.6948 H           1 PRL       0.1756
     27 H11        11.4837   25.6361   45.7079 H           1 PRL       0.1756
@<TRIPOS>BOND
     1     1    13  ar
     2     1     2  ar
     3     2     3  ar
     4     3    15   1
     5     3     4  ar
     6     4    11  ar
     7    11    10  ar
     8    11    13  ar
     9    13     9  ar
    10     9    12  ar
    11    12     8  ar
    12    12    14  ar
    13    14     5  ar
    14    14    10  ar
    15     5     6  ar
    16     6    16   1
    17     6     7  ar
    18     7     8  ar
    19     1    17   1
    20     2    18   1
    21     4    19   1
    22     5    20   1
    23     7    21   1
    24     8    22   1
    25     9    23   1
    26    15    24   1
    27    15    25   1
    28    16    26   1
    29    16    27   1
@<TRIPOS>SUBSTRUCTURE
     1  PRL      1

