@<TRIPOS>MOLECULE
1bcu_ligand_083
    27    29
SMALL
GAST_HUCK
****
This file was generated by PARSER (from files_GN.cpp)

@<TRIPOS>ATOM
      1 C1          3.2638   16.5204   46.2209 C.ar        1 PRL      -0.0483
      2 C2          3.9293   16.7621   47.4368 C.ar        1 PRL      -0.0317
      3 C3          5.2261   16.2531   47.6525 C.ar        1 PRL       0.0415
      4 C4          5.8580   15.4972   46.6446 C.ar        1 PRL      -0.0313
      5 C5          5.9247   13.5101   42.2860 C.ar        1 PRL      -0.0313
      6 C6          5.3318   13.2462   41.0346 C.ar        1 PRL       0.0415
      7 C7          4.0369   13.7294   40.7569 C.ar        1 PRL      -0.0317
      8 C8          3.3340   14.4732   41.7224 C.ar        1 PRL      -0.0483
      9 C9          3.2597   15.5006   43.9697 C.ar        1 PRL      -0.0279
     10 N10         5.8051   14.5236   44.4546 N.ar        1 PRL      -0.3286
     11 C11         5.1960   15.2503   45.4258 C.ar        1 PRL       0.0162
     12 C12         3.9218   14.7457   42.9776 C.ar        1 PRL       0.0016
     13 C13         3.8891   15.7642   45.2060 C.ar        1 PRL       0.0016
     14 C14         5.2269   14.2565   43.2552 C.ar        1 PRL       0.0162
     15 N15         5.8561   16.4843   48.8181 N.pl3       1 PRL      -0.3324
     16 N16         5.9995   12.5350   40.1086 N.pl3       1 PRL      -0.3324
     17 H1          2.3229   16.8988   46.0824 H           1 PRL       0.0666
     18 H2          3.4625   17.3096   48.1646 H           1 PRL       0.0587
     19 H3          6.7999   15.1253   46.7971 H           1 PRL       0.0438
     20 H4          6.8670   13.1645   42.4896 H           1 PRL       0.0438
     21 H5          3.5994   13.5409   39.8511 H           1 PRL       0.0587
     22 H6          2.3963   14.8180   41.5016 H           1 PRL       0.0666
     23 H7          2.3195   15.8645   43.7893 H           1 PRL       0.0848
     24 H8          5.4189   17.0011   49.5139 H           1 PRL       0.1756
     25 H9          6.7453   16.1281   48.9710 H           1 PRL       0.1756
     26 H10         6.8882   12.1967   40.3015 H           1 PRL       0.1756
     27 H11         5.5909   12.3512   39.2474 H           1 PRL       0.1756
@<TRIPOS>BOND
     1     1    13  ar
     2     1     2  ar
     3     2     3  ar
     4     3    15   1
     5     3     4  ar
     6     4    11  ar
     7    11    10  ar
     8    11    13  ar
     9    13     9  ar
    10     9    12  ar
    11    12     8  ar
    12    12    14  ar
    13    14     5  ar
    14    14    10  ar
    15     5     6  ar
    16     6    16   1
    17     6     7  ar
    18     7     8  ar
    19     1    17   1
    20     2    18   1
    21     4    19   1
    22     5    20   1
    23     7    21   1
    24     8    22   1
    25     9    23   1
    26    15    24   1
    27    15    25   1
    28    16    26   1
    29    16    27   1
@<TRIPOS>SUBSTRUCTURE
     1  PRL      1

