@<TRIPOS>MOLECULE
1bcu_ligand_090
    27    29
SMALL
GAST_HUCK
****
This file was generated by PARSER (from files_GN.cpp)

@<TRIPOS>ATOM
      1 C1         14.5527   15.1104   59.1546 C.ar        1 PRL      -0.0483
      2 C2         14.2791   15.6964   57.9041 C.ar        1 PRL      -0.0317
      3 C3         15.3251   15.9703   57.0000 C.ar        1 PRL       0.0415
      4 C4         16.6538   15.6573   57.3512 C.ar        1 PRL      -0.0313
      5 C5         19.9093   13.9443   60.4145 C.ar        1 PRL      -0.0313
      6 C6         20.2669   13.3562   61.6440 C.ar        1 PRL       0.0415
      7 C7         19.2675   13.0369   62.5849 C.ar        1 PRL      -0.0317
      8 C8         17.9139   13.3036   62.3019 C.ar        1 PRL      -0.0483
      9 C9         16.2040   14.1955   60.7515 C.ar        1 PRL      -0.0279
     10 N10        18.2155   14.7790   58.9412 N.ar        1 PRL      -0.3286
     11 C11        16.9343   15.0754   58.6026 C.ar        1 PRL       0.0162
     12 C12        17.5467   13.8969   61.0739 C.ar        1 PRL       0.0016
     13 C13        15.8806   14.7894   59.5122 C.ar        1 PRL       0.0016
     14 C14        18.5571   14.2136   60.1266 C.ar        1 PRL       0.0162
     15 N15        15.0544   16.5271   55.8064 N.pl3       1 PRL      -0.3324
     16 N16        21.5597   13.1032   61.9199 N.pl3       1 PRL      -0.3324
     17 H1         13.7798   14.9161   59.7976 H           1 PRL       0.0666
     18 H2         13.3131   15.9227   57.6573 H           1 PRL       0.0587
     19 H3         17.4190   15.8547   56.6995 H           1 PRL       0.0438
     20 H4         20.6305   14.1757   59.7264 H           1 PRL       0.0438
     21 H5         19.5202   12.6101   63.4801 H           1 PRL       0.0587
     22 H6         17.2040   13.0662   62.9996 H           1 PRL       0.0666
     23 H7         15.4601   13.9830   61.4225 H           1 PRL       0.0848
     24 H8         14.1415   16.7525   55.5704 H           1 PRL       0.1756
     25 H9         15.7719   16.7153   55.1838 H           1 PRL       0.1756
     26 H10        22.2488   13.3254   61.2739 H           1 PRL       0.1756
     27 H11        21.8065   12.6918   62.7632 H           1 PRL       0.1756
@<TRIPOS>BOND
     1     1    13  ar
     2     1     2  ar
     3     2     3  ar
     4     3    15   1
     5     3     4  ar
     6     4    11  ar
     7    11    10  ar
     8    11    13  ar
     9    13     9  ar
    10     9    12  ar
    11    12     8  ar
    12    12    14  ar
    13    14     5  ar
    14    14    10  ar
    15     5     6  ar
    16     6    16   1
    17     6     7  ar
    18     7     8  ar
    19     1    17   1
    20     2    18   1
    21     4    19   1
    22     5    20   1
    23     7    21   1
    24     8    22   1
    25     9    23   1
    26    15    24   1
    27    15    25   1
    28    16    26   1
    29    16    27   1
@<TRIPOS>SUBSTRUCTURE
     1  PRL      1

