@<TRIPOS>MOLECULE
1bcu_ligand_006
    27    29
SMALL
GAST_HUCK
****
This file was generated by PARSER (from files_GN.cpp)

@<TRIPOS>ATOM
      1 C1          9.2006   18.6354   50.4021 C.ar        1 PRL      -0.0483
      2 C2          8.7819   18.5868   51.7450 C.ar        1 PRL      -0.0317
      3 C3          8.7904   19.7542   52.5343 C.ar        1 PRL       0.0415
      4 C4          9.2294   20.9744   51.9800 C.ar        1 PRL      -0.0313
      5 C5         10.8895   23.5750   48.3087 C.ar        1 PRL      -0.0313
      6 C6         11.3459   23.6920   46.9791 C.ar        1 PRL       0.0415
      7 C7         11.3956   22.5510   46.1533 C.ar        1 PRL      -0.0317
      8 C8         10.9823   21.2993   46.6444 C.ar        1 PRL      -0.0483
      9 C9         10.0598   19.9453   48.4924 C.ar        1 PRL      -0.0279
     10 N10        10.0639   22.2036   50.0965 N.ar        1 PRL      -0.3286
     11 C11         9.6491   21.0282   50.6350 C.ar        1 PRL       0.0162
     12 C12        10.5095   21.1763   47.9680 C.ar        1 PRL       0.0016
     13 C13         9.6360   19.8528   49.8355 C.ar        1 PRL       0.0016
     14 C14        10.4858   22.3215   48.8110 C.ar        1 PRL       0.0162
     15 N15         8.3660   19.7011   53.8098 N.pl3       1 PRL      -0.3324
     16 N16        11.7161   24.8904   46.4932 N.pl3       1 PRL      -0.3324
     17 H1          9.1876   17.7806   49.8421 H           1 PRL       0.0666
     18 H2          8.4669   17.6968   52.1417 H           1 PRL       0.0587
     19 H3          9.2403   21.8228   52.5545 H           1 PRL       0.0438
     20 H4         10.8485   24.4017   48.9099 H           1 PRL       0.0438
     21 H5         11.7327   22.6264   45.1907 H           1 PRL       0.0587
     22 H6         11.0198   20.4801   46.0315 H           1 PRL       0.0666
     23 H7         10.0368   19.1140   47.8961 H           1 PRL       0.0848
     24 H8          8.0657   18.8615   54.1886 H           1 PRL       0.1756
     25 H9          8.3487   20.5053   54.3516 H           1 PRL       0.1756
     26 H10        11.6626   25.6801   47.0517 H           1 PRL       0.1756
     27 H11        12.0329   24.9696   45.5797 H           1 PRL       0.1756
@<TRIPOS>BOND
     1     1    13  ar
     2     1     2  ar
     3     2     3  ar
     4     3    15   1
     5     3     4  ar
     6     4    11  ar
     7    11    10  ar
     8    11    13  ar
     9    13     9  ar
    10     9    12  ar
    11    12     8  ar
    12    12    14  ar
    13    14     5  ar
    14    14    10  ar
    15     5     6  ar
    16     6    16   1
    17     6     7  ar
    18     7     8  ar
    19     1    17   1
    20     2    18   1
    21     4    19   1
    22     5    20   1
    23     7    21   1
    24     8    22   1
    25     9    23   1
    26    15    24   1
    27    15    25   1
    28    16    26   1
    29    16    27   1
@<TRIPOS>SUBSTRUCTURE
     1  PRL      1

