@<TRIPOS>MOLECULE
1bcu_ligand_005
    27    29
SMALL
GAST_HUCK
****
This file was generated by PARSER (from files_GN.cpp)

@<TRIPOS>ATOM
      1 C1          9.7002   20.7038   48.5972 C.ar        1 PRL      -0.0483
      2 C2          9.5246   22.0817   48.8110 C.ar        1 PRL      -0.0317
      3 C3          9.5480   22.5986   50.1207 C.ar        1 PRL       0.0415
      4 C4          9.7270   21.7325   51.2196 C.ar        1 PRL      -0.0313
      5 C5         10.3704   17.3374   53.0246 C.ar        1 PRL      -0.0313
      6 C6         10.5324   15.9453   52.8808 C.ar        1 PRL       0.0415
      7 C7         10.5130   15.3639   51.5961 C.ar        1 PRL      -0.0317
      8 C8         10.3366   16.1753   50.4582 C.ar        1 PRL      -0.0483
      9 C9         10.0108   18.4315   49.4937 C.ar        1 PRL      -0.0279
     10 N10        10.0442   19.4975   52.0506 N.ar        1 PRL      -0.3286
     11 C11         9.8784   20.3458   51.0056 C.ar        1 PRL       0.0162
     12 C12        10.1793   17.5744   50.5988 C.ar        1 PRL       0.0016
     13 C13         9.8629   19.8232   49.6844 C.ar        1 PRL       0.0016
     14 C14        10.1948   18.1540   51.8962 C.ar        1 PRL       0.0162
     15 N15         9.4051   23.9203   50.3121 N.pl3       1 PRL      -0.3324
     16 N16        10.6980   15.1977   53.9839 N.pl3       1 PRL      -0.3324
     17 H1          9.7171   20.3448   47.6427 H           1 PRL       0.0666
     18 H2          9.3923   22.7008   48.0068 H           1 PRL       0.0587
     19 H3          9.7346   22.1110   52.1716 H           1 PRL       0.0438
     20 H4         10.3830   17.7617   53.9544 H           1 PRL       0.0438
     21 H5         10.6236   14.3523   51.4861 H           1 PRL       0.0587
     22 H6         10.3279   15.7389   49.5315 H           1 PRL       0.0666
     23 H7          9.9944   18.0437   48.5481 H           1 PRL       0.0848
     24 H8          9.2467   24.5037   49.5544 H           1 PRL       0.1756
     25 H9          9.4578   24.2929   51.2051 H           1 PRL       0.1756
     26 H10        10.6812   15.6346   54.8516 H           1 PRL       0.1756
     27 H11        10.8116   14.2385   53.9201 H           1 PRL       0.1756
@<TRIPOS>BOND
     1     1    13  ar
     2     1     2  ar
     3     2     3  ar
     4     3    15   1
     5     3     4  ar
     6     4    11  ar
     7    11    10  ar
     8    11    13  ar
     9    13     9  ar
    10     9    12  ar
    11    12     8  ar
    12    12    14  ar
    13    14     5  ar
    14    14    10  ar
    15     5     6  ar
    16     6    16   1
    17     6     7  ar
    18     7     8  ar
    19     1    17   1
    20     2    18   1
    21     4    19   1
    22     5    20   1
    23     7    21   1
    24     8    22   1
    25     9    23   1
    26    15    24   1
    27    15    25   1
    28    16    26   1
    29    16    27   1
@<TRIPOS>SUBSTRUCTURE
     1  PRL      1

