@<TRIPOS>MOLECULE
1bcu_ligand_066
    27    29
SMALL
GAST_HUCK
****
This file was generated by PARSER (from files_GN.cpp)

@<TRIPOS>ATOM
      1 C1         14.8344   13.4787   55.5332 C.ar        1 PRL      -0.0483
      2 C2         14.3715   14.7809   55.7997 C.ar        1 PRL      -0.0317
      3 C3         13.0981   15.1886   55.3528 C.ar        1 PRL       0.0415
      4 C4         12.2871   14.2901   54.6305 C.ar        1 PRL      -0.0313
      5 C5         11.4975   10.0166   52.6112 C.ar        1 PRL      -0.0313
      6 C6         11.8961    8.7018   52.2965 C.ar        1 PRL       0.0415
      7 C7         13.1561    8.2317   52.7190 C.ar        1 PRL      -0.0317
      8 C8         14.0185    9.0692   53.4522 C.ar        1 PRL      -0.0483
      9 C9         14.4602   11.2621   54.5047 C.ar        1 PRL      -0.0279
     10 N10        11.9719   12.1261   53.6476 N.ar        1 PRL      -0.3286
     11 C11        12.7501   12.9893   54.3507 C.ar        1 PRL       0.0162
     12 C12        13.6280   10.3882   53.7708 C.ar        1 PRL       0.0016
     13 C13        14.0320   12.5739   54.8035 C.ar        1 PRL       0.0016
     14 C14        12.3565   10.8596   53.3443 C.ar        1 PRL       0.0162
     15 N15        12.6577   16.4303   55.6226 N.pl3       1 PRL      -0.3324
     16 N16        11.0766    7.8974   51.5953 N.pl3       1 PRL      -0.3324
     17 H1         15.7609   13.2006   55.8676 H           1 PRL       0.0666
     18 H2         14.9651   15.4278   56.3262 H           1 PRL       0.0587
     19 H3         11.3610   14.5831   54.3062 H           1 PRL       0.0438
     20 H4         10.5816   10.3601   52.3082 H           1 PRL       0.0438
     21 H5         13.4517    7.2779   52.4958 H           1 PRL       0.0587
     22 H6         14.9293    8.7101   53.7507 H           1 PRL       0.0666
     23 H7         15.3798   10.9421   54.8231 H           1 PRL       0.0848
     24 H8         13.2157   17.0438   56.1241 H           1 PRL       0.1756
     25 H9         11.7640   16.7037   55.3622 H           1 PRL       0.1756
     26 H10        10.2090    8.2202   51.3036 H           1 PRL       0.1756
     27 H11        11.3513    6.9924   51.3783 H           1 PRL       0.1756
@<TRIPOS>BOND
     1     1    13  ar
     2     1     2  ar
     3     2     3  ar
     4     3    15   1
     5     3     4  ar
     6     4    11  ar
     7    11    10  ar
     8    11    13  ar
     9    13     9  ar
    10     9    12  ar
    11    12     8  ar
    12    12    14  ar
    13    14     5  ar
    14    14    10  ar
    15     5     6  ar
    16     6    16   1
    17     6     7  ar
    18     7     8  ar
    19     1    17   1
    20     2    18   1
    21     4    19   1
    22     5    20   1
    23     7    21   1
    24     8    22   1
    25     9    23   1
    26    15    24   1
    27    15    25   1
    28    16    26   1
    29    16    27   1
@<TRIPOS>SUBSTRUCTURE
     1  PRL      1

