@<TRIPOS>MOLECULE
1bcu_ligand_053
    27    29
SMALL
GAST_HUCK
****
This file was generated by PARSER (from files_GN.cpp)

@<TRIPOS>ATOM
      1 C1          2.4816   16.3724   47.5047 C.ar        1 PRL      -0.0483
      2 C2          3.1400   15.1343   47.6277 C.ar        1 PRL      -0.0317
      3 C3          3.5613   14.6758   48.8924 C.ar        1 PRL       0.0415
      4 C4          3.3157   15.4590   50.0393 C.ar        1 PRL      -0.0313
      5 C5          1.6021   19.4130   52.1584 C.ar        1 PRL      -0.0313
      6 C6          0.9612   20.6665   52.1127 C.ar        1 PRL       0.0415
      7 C7          0.5154   21.1789   50.8775 C.ar        1 PRL      -0.0317
      8 C8          0.7045   20.4331   49.6967 C.ar        1 PRL      -0.0483
      9 C9          1.5848   18.4159   48.5692 C.ar        1 PRL      -0.0279
     10 N10         2.4325   17.4636   51.0234 N.ar        1 PRL      -0.3286
     11 C11         2.6611   16.7020   49.9211 C.ar        1 PRL       0.0162
     12 C12         1.3569   19.1813   49.7343 C.ar        1 PRL       0.0016
     13 C13         2.2381   17.1668   48.6474 C.ar        1 PRL       0.0016
     14 C14         1.8061   18.6685   50.9792 C.ar        1 PRL       0.0162
     15 N15         4.2029   13.4977   49.0005 N.pl3       1 PRL      -0.3324
     16 N16         0.7635   21.3351   53.2634 N.pl3       1 PRL      -0.3324
     17 H1          2.1854   16.6887   46.5773 H           1 PRL       0.0666
     18 H2          3.3136   14.5716   46.7911 H           1 PRL       0.0587
     19 H3          3.6156   15.1259   50.9598 H           1 PRL       0.0438
     20 H4          1.9170   19.0448   53.0565 H           1 PRL       0.0438
     21 H5          0.0309   22.0799   50.8379 H           1 PRL       0.0587
     22 H6          0.3639   20.8051   48.8097 H           1 PRL       0.0666
     23 H7          1.2788   18.7741   47.6598 H           1 PRL       0.0848
     24 H8          4.3806   12.9658   48.2088 H           1 PRL       0.1756
     25 H9          4.5010   13.1825   49.8684 H           1 PRL       0.1756
     26 H10         1.0065   20.9075   54.1001 H           1 PRL       0.1756
     27 H11         0.3223   22.1984   53.2725 H           1 PRL       0.1756
@<TRIPOS>BOND
     1     1    13  ar
     2     1     2  ar
     3     2     3  ar
     4     3    15   1
     5     3     4  ar
     6     4    11  ar
     7    11    10  ar
     8    11    13  ar
     9    13     9  ar
    10     9    12  ar
    11    12     8  ar
    12    12    14  ar
    13    14     5  ar
    14    14    10  ar
    15     5     6  ar
    16     6    16   1
    17     6     7  ar
    18     7     8  ar
    19     1    17   1
    20     2    18   1
    21     4    19   1
    22     5    20   1
    23     7    21   1
    24     8    22   1
    25     9    23   1
    26    15    24   1
    27    15    25   1
    28    16    26   1
    29    16    27   1
@<TRIPOS>SUBSTRUCTURE
     1  PRL      1

