@<TRIPOS>MOLECULE
1bcu_ligand_077
    27    29
SMALL
GAST_HUCK
****
This file was generated by PARSER (from files_GN.cpp)

@<TRIPOS>ATOM
      1 C1         18.5309   14.8096   62.9077 C.ar        1 PRL      -0.0483
      2 C2         19.8969   14.5849   63.1619 C.ar        1 PRL      -0.0317
      3 C3         20.8357   14.6469   62.1126 C.ar        1 PRL       0.0415
      4 C4         20.4043   14.9375   60.8028 C.ar        1 PRL      -0.0313
      5 C5         16.9652   15.9657   57.6298 C.ar        1 PRL      -0.0313
      6 C6         15.6151   16.1944   57.2967 C.ar        1 PRL       0.0415
      7 C7         14.6261   16.1355   58.2991 C.ar        1 PRL      -0.0317
      8 C8         14.9801   15.8529   59.6315 C.ar        1 PRL      -0.0483
      9 C9         16.7302   15.3322   61.2970 C.ar        1 PRL      -0.0279
     10 N10        18.6242   15.4475   59.2808 N.ar        1 PRL      -0.3286
     11 C11        19.0389   15.1657   60.5426 C.ar        1 PRL       0.0162
     12 C12        16.3300   15.6213   59.9743 C.ar        1 PRL       0.0016
     13 C13        18.0899   15.1015   61.5983 C.ar        1 PRL       0.0016
     14 C14        17.3248   15.6765   58.9610 C.ar        1 PRL       0.0162
     15 N15        22.1392   14.4275   62.3615 N.pl3       1 PRL      -0.3324
     16 N16        15.2685   16.4679   56.0262 N.pl3       1 PRL      -0.3324
     17 H1         17.8644   14.7593   63.6824 H           1 PRL       0.0666
     18 H2         20.2023   14.3743   64.1153 H           1 PRL       0.0587
     19 H3         21.0825   14.9802   60.0376 H           1 PRL       0.0438
     20 H4         17.6862   16.0072   56.9041 H           1 PRL       0.0438
     21 H5         13.6437   16.2996   58.0645 H           1 PRL       0.0587
     22 H6         14.2475   15.8156   60.3452 H           1 PRL       0.0666
     23 H7         16.0294   15.2880   62.0423 H           1 PRL       0.0848
     24 H8         22.4352   14.2262   63.2636 H           1 PRL       0.1756
     25 H9         22.7865   14.4678   61.6397 H           1 PRL       0.1756
     26 H10        15.9465   16.5220   55.3350 H           1 PRL       0.1756
     27 H11        14.3382   16.6273   55.8003 H           1 PRL       0.1756
@<TRIPOS>BOND
     1     1    13  ar
     2     1     2  ar
     3     2     3  ar
     4     3    15   1
     5     3     4  ar
     6     4    11  ar
     7    11    10  ar
     8    11    13  ar
     9    13     9  ar
    10     9    12  ar
    11    12     8  ar
    12    12    14  ar
    13    14     5  ar
    14    14    10  ar
    15     5     6  ar
    16     6    16   1
    17     6     7  ar
    18     7     8  ar
    19     1    17   1
    20     2    18   1
    21     4    19   1
    22     5    20   1
    23     7    21   1
    24     8    22   1
    25     9    23   1
    26    15    24   1
    27    15    25   1
    28    16    26   1
    29    16    27   1
@<TRIPOS>SUBSTRUCTURE
     1  PRL      1

