@<TRIPOS>MOLECULE
1bcu_ligand_008
    27    29
SMALL
GAST_HUCK
****
This file was generated by PARSER (from files_GN.cpp)

@<TRIPOS>ATOM
      1 C1          7.2881   15.2885   49.2378 C.ar        1 PRL      -0.0483
      2 C2          8.4023   15.0407   50.0615 C.ar        1 PRL      -0.0317
      3 C3          9.5170   14.3412   49.5567 C.ar        1 PRL       0.0415
      4 C4          9.5094   13.8788   48.2256 C.ar        1 PRL      -0.0313
      5 C5          7.4374   13.4373   43.9285 C.ar        1 PRL      -0.0313
      6 C6          6.3711   13.6728   43.0377 C.ar        1 PRL       0.0415
      7 C7          5.2279   14.3686   43.4811 C.ar        1 PRL      -0.0317
      8 C8          5.1507   14.8387   44.8051 C.ar        1 PRL      -0.0483
      9 C9          6.1857   15.0740   47.0361 C.ar        1 PRL      -0.0279
     10 N10         8.3963   13.6834   46.1116 N.ar        1 PRL      -0.3286
     11 C11         8.3962   14.1199   47.3976 C.ar        1 PRL       0.0162
     12 C12         6.2179   14.6141   45.7019 C.ar        1 PRL       0.0016
     13 C13         7.2759   14.8353   47.9005 C.ar        1 PRL       0.0016
     14 C14         7.3657   13.9042   45.2554 C.ar        1 PRL       0.0162
     15 N15        10.5880   14.1194   50.3391 N.pl3       1 PRL      -0.3324
     16 N16         6.4472   13.2362   41.7679 N.pl3       1 PRL      -0.3324
     17 H1          6.4914   15.8054   49.6187 H           1 PRL       0.0666
     18 H2          8.3990   15.3781   51.0276 H           1 PRL       0.0587
     19 H3         10.3190   13.3770   47.8546 H           1 PRL       0.0438
     20 H4          8.2677   12.9300   43.6101 H           1 PRL       0.0438
     21 H5          4.4490   14.5424   42.8410 H           1 PRL       0.0587
     22 H6          4.3145   15.3463   45.1068 H           1 PRL       0.0666
     23 H7          5.3684   15.5889   47.3774 H           1 PRL       0.0848
     24 H8         10.5979   14.4381   51.2560 H           1 PRL       0.1756
     25 H9         11.3597   13.6513   49.9822 H           1 PRL       0.1756
     26 H10         7.2366   12.7608   41.4635 H           1 PRL       0.1756
     27 H11         5.7141   13.3955   41.1527 H           1 PRL       0.1756
@<TRIPOS>BOND
     1     1    13  ar
     2     1     2  ar
     3     2     3  ar
     4     3    15   1
     5     3     4  ar
     6     4    11  ar
     7    11    10  ar
     8    11    13  ar
     9    13     9  ar
    10     9    12  ar
    11    12     8  ar
    12    12    14  ar
    13    14     5  ar
    14    14    10  ar
    15     5     6  ar
    16     6    16   1
    17     6     7  ar
    18     7     8  ar
    19     1    17   1
    20     2    18   1
    21     4    19   1
    22     5    20   1
    23     7    21   1
    24     8    22   1
    25     9    23   1
    26    15    24   1
    27    15    25   1
    28    16    26   1
    29    16    27   1
@<TRIPOS>SUBSTRUCTURE
     1  PRL      1

