@<TRIPOS>MOLECULE
1bcu_ligand_039
    27    29
SMALL
GAST_HUCK
****
This file was generated by PARSER (from files_GN.cpp)

@<TRIPOS>ATOM
      1 C1          1.1528   16.1029   50.3929 C.ar        1 PRL      -0.0483
      2 C2          1.4324   14.7408   50.6091 C.ar        1 PRL      -0.0317
      3 C3          1.9223   13.9390   49.5583 C.ar        1 PRL       0.0415
      4 C4          2.1316   14.5040   48.2834 C.ar        1 PRL      -0.0313
      5 C5          2.0708   18.2252   45.2616 C.ar        1 PRL      -0.0313
      6 C6          1.8306   19.5854   44.9782 C.ar        1 PRL       0.0415
      7 C7          1.3625   20.4434   45.9941 C.ar        1 PRL      -0.0317
      8 C8          1.1195   19.9425   47.2867 C.ar        1 PRL      -0.0483
      9 C9          1.1157   18.0429   48.8619 C.ar        1 PRL      -0.0279
     10 N10         2.0673   16.4134   46.8347 N.ar        1 PRL      -0.3286
     11 C11         1.8587   15.8678   48.0614 C.ar        1 PRL       0.0162
     12 C12         1.3495   18.5813   47.5780 C.ar        1 PRL       0.0016
     13 C13         1.3678   16.6786   49.1208 C.ar        1 PRL       0.0016
     14 C14         1.8335   17.7214   46.5559 C.ar        1 PRL       0.0162
     15 N15         2.1906   12.6387   49.7724 N.pl3       1 PRL      -0.3324
     16 N16         2.0356   20.0660   43.7395 N.pl3       1 PRL      -0.3324
     17 H1          0.7959   16.6699   51.1674 H           1 PRL       0.0666
     18 H2          1.2789   14.3374   51.5351 H           1 PRL       0.0587
     19 H3          2.4878   13.9246   47.5173 H           1 PRL       0.0438
     20 H4          2.4115   17.6004   44.5251 H           1 PRL       0.0438
     21 H5          1.1956   21.4344   45.7981 H           1 PRL       0.0587
     22 H6          0.7741   20.5741   48.0124 H           1 PRL       0.0666
     23 H7          0.7664   18.6472   49.6113 H           1 PRL       0.0848
     24 H8          2.0486   12.2514   50.6510 H           1 PRL       0.1756
     25 H9          2.5293   12.0863   49.0513 H           1 PRL       0.1756
     26 H10         2.3618   19.4830   43.0359 H           1 PRL       0.1756
     27 H11         1.8371   20.9937   43.5426 H           1 PRL       0.1756
@<TRIPOS>BOND
     1     1    13  ar
     2     1     2  ar
     3     2     3  ar
     4     3    15   1
     5     3     4  ar
     6     4    11  ar
     7    11    10  ar
     8    11    13  ar
     9    13     9  ar
    10     9    12  ar
    11    12     8  ar
    12    12    14  ar
    13    14     5  ar
    14    14    10  ar
    15     5     6  ar
    16     6    16   1
    17     6     7  ar
    18     7     8  ar
    19     1    17   1
    20     2    18   1
    21     4    19   1
    22     5    20   1
    23     7    21   1
    24     8    22   1
    25     9    23   1
    26    15    24   1
    27    15    25   1
    28    16    26   1
    29    16    27   1
@<TRIPOS>SUBSTRUCTURE
     1  PRL      1

