@<TRIPOS>MOLECULE
1bcu_ligand_037
    27    29
SMALL
GAST_HUCK
****
This file was generated by PARSER (from files_GN.cpp)

@<TRIPOS>ATOM
      1 C1          2.8929   16.8901   50.3251 C.ar        1 PRL      -0.0483
      2 C2          3.9462   15.9888   50.5678 C.ar        1 PRL      -0.0317
      3 C3          4.8680   15.6813   49.5468 C.ar        1 PRL       0.0415
      4 C4          4.7351   16.2810   48.2779 C.ar        1 PRL      -0.0313
      5 C5          2.5008   19.2225   45.2201 C.ar        1 PRL      -0.0313
      6 C6          1.4807   20.1453   44.9105 C.ar        1 PRL       0.0415
      7 C7          0.5246   20.4842   45.8887 C.ar        1 PRL      -0.0317
      8 C8          0.5850   19.9116   47.1725 C.ar        1 PRL      -0.0483
      9 C9          1.7113   18.4044   48.7721 C.ar        1 PRL      -0.0279
     10 N10         3.5578   17.7676   46.8091 N.ar        1 PRL      -0.3286
     11 C11         3.6839   17.1853   48.0297 C.ar        1 PRL       0.0162
     12 C12         1.6082   18.9942   47.4937 C.ar        1 PRL       0.0016
     13 C13         2.7520   17.4947   49.0571 C.ar        1 PRL       0.0016
     14 C14         2.5700   18.6494   46.5059 C.ar        1 PRL       0.0162
     15 N15         5.8728   14.8185   49.7831 N.pl3       1 PRL      -0.3324
     16 N16         1.4192   20.7017   43.6873 N.pl3       1 PRL      -0.3324
     17 H1          2.2335   17.1024   51.0776 H           1 PRL       0.0666
     18 H2          4.0374   15.5584   51.4915 H           1 PRL       0.0587
     19 H3          5.4040   16.0608   47.5347 H           1 PRL       0.0438
     20 H4          3.1955   18.9709   44.5118 H           1 PRL       0.0438
     21 H5         -0.2217   21.1483   45.6715 H           1 PRL       0.0587
     22 H6         -0.1194   20.1700   47.8688 H           1 PRL       0.0666
     23 H7          1.0274   18.6398   49.4976 H           1 PRL       0.0848
     24 H8          5.9651   14.4058   50.6565 H           1 PRL       0.1756
     25 H9          6.5080   14.6066   49.0808 H           1 PRL       0.1756
     26 H10         2.0718   20.4586   43.0120 H           1 PRL       0.1756
     27 H11         0.7343   21.3605   43.4841 H           1 PRL       0.1756
@<TRIPOS>BOND
     1     1    13  ar
     2     1     2  ar
     3     2     3  ar
     4     3    15   1
     5     3     4  ar
     6     4    11  ar
     7    11    10  ar
     8    11    13  ar
     9    13     9  ar
    10     9    12  ar
    11    12     8  ar
    12    12    14  ar
    13    14     5  ar
    14    14    10  ar
    15     5     6  ar
    16     6    16   1
    17     6     7  ar
    18     7     8  ar
    19     1    17   1
    20     2    18   1
    21     4    19   1
    22     5    20   1
    23     7    21   1
    24     8    22   1
    25     9    23   1
    26    15    24   1
    27    15    25   1
    28    16    26   1
    29    16    27   1
@<TRIPOS>SUBSTRUCTURE
     1  PRL      1

