@<TRIPOS>MOLECULE
1bcu_ligand_050
    27    29
SMALL
GAST_HUCK
****
This file was generated by PARSER (from files_GN.cpp)

@<TRIPOS>ATOM
      1 C1          6.0035   19.9934   56.6182 C.ar        1 PRL      -0.0483
      2 C2          7.0145   20.0965   55.6411 C.ar        1 PRL      -0.0317
      3 C3          7.3021   19.0049   54.8000 C.ar        1 PRL       0.0415
      4 C4          6.5809   17.8036   54.9354 C.ar        1 PRL      -0.0313
      5 C5          3.1965   15.1356   57.0426 C.ar        1 PRL      -0.0313
      6 C6          2.1580   14.9685   57.9814 C.ar        1 PRL       0.0415
      7 C7          1.8278   16.0203   58.8568 C.ar        1 PRL      -0.0317
      8 C8          2.5237   17.2405   58.7956 C.ar        1 PRL      -0.0483
      9 C9          4.2659   18.6392   57.7376 C.ar        1 PRL      -0.0279
     10 N10         4.8880   16.5268   56.0611 N.ar        1 PRL      -0.3286
     11 C11         5.5787   17.6866   55.9222 C.ar        1 PRL       0.0162
     12 C12         3.5603   17.4225   57.8531 C.ar        1 PRL       0.0016
     13 C13         5.2820   18.7894   56.7674 C.ar        1 PRL       0.0016
     14 C14         3.9000   16.3552   56.9776 C.ar        1 PRL       0.0162
     15 N15         8.2740   19.1054   53.8740 N.pl3       1 PRL      -0.3324
     16 N16         1.4933   13.8010   58.0503 N.pl3       1 PRL      -0.3324
     17 H1          5.8096   20.7959   57.2209 H           1 PRL       0.0666
     18 H2          7.5423   20.9693   55.5561 H           1 PRL       0.0587
     19 H3          6.7844   17.0102   54.3207 H           1 PRL       0.0438
     20 H4          3.4332   14.3756   56.3993 H           1 PRL       0.0438
     21 H5          1.0809   15.9012   59.5480 H           1 PRL       0.0587
     22 H6          2.2649   17.9955   59.4365 H           1 PRL       0.0666
     23 H7          4.0314   19.4235   58.3530 H           1 PRL       0.0848
     24 H8          8.7775   19.9302   53.7844 H           1 PRL       0.1756
     25 H9          8.4846   18.3478   53.3060 H           1 PRL       0.1756
     26 H10         1.7280   13.0711   57.4564 H           1 PRL       0.1756
     27 H11         0.7906   13.6800   58.7087 H           1 PRL       0.1756
@<TRIPOS>BOND
     1     1    13  ar
     2     1     2  ar
     3     2     3  ar
     4     3    15   1
     5     3     4  ar
     6     4    11  ar
     7    11    10  ar
     8    11    13  ar
     9    13     9  ar
    10     9    12  ar
    11    12     8  ar
    12    12    14  ar
    13    14     5  ar
    14    14    10  ar
    15     5     6  ar
    16     6    16   1
    17     6     7  ar
    18     7     8  ar
    19     1    17   1
    20     2    18   1
    21     4    19   1
    22     5    20   1
    23     7    21   1
    24     8    22   1
    25     9    23   1
    26    15    24   1
    27    15    25   1
    28    16    26   1
    29    16    27   1
@<TRIPOS>SUBSTRUCTURE
     1  PRL      1

