@<TRIPOS>MOLECULE
1bcu_ligand_071
    27    29
SMALL
GAST_HUCK
****
This file was generated by PARSER (from files_GN.cpp)

@<TRIPOS>ATOM
      1 C1         10.4450   17.3079   59.7300 C.ar        1 PRL      -0.0483
      2 C2          9.1125   17.1526   60.1555 C.ar        1 PRL      -0.0317
      3 C3          8.3420   16.0649   59.6976 C.ar        1 PRL       0.0415
      4 C4          8.9133   15.1193   58.8222 C.ar        1 PRL      -0.0313
      5 C5         12.5765   13.4882   56.1946 C.ar        1 PRL      -0.0313
      6 C6         13.9076   13.5737   55.7381 C.ar        1 PRL       0.0415
      7 C7         14.7248   14.6425   56.1563 C.ar        1 PRL      -0.0317
      8 C8         14.2201   15.6232   57.0281 C.ar        1 PRL      -0.0483
      9 C9         12.3476   16.4990   58.3811 C.ar        1 PRL      -0.0279
     10 N10        10.7929   14.3701   57.5344 N.ar        1 PRL      -0.3286
     11 C11        10.2451   15.2720   58.3889 C.ar        1 PRL       0.0162
     12 C12        12.8903   15.5422   57.4976 C.ar        1 PRL       0.0016
     13 C13        11.0196   16.3748   58.8402 C.ar        1 PRL       0.0016
     14 C14        12.0681   14.4617   57.0770 C.ar        1 PRL       0.0162
     15 N15         7.0619   15.9386   60.0880 N.pl3       1 PRL      -0.3324
     16 N16        14.4002   12.6358   54.9095 N.pl3       1 PRL      -0.3324
     17 H1         10.9882   18.1058   60.0695 H           1 PRL       0.0666
     18 H2          8.7066   17.8398   60.7952 H           1 PRL       0.0587
     19 H3          8.3595   14.3228   58.4953 H           1 PRL       0.0438
     20 H4         11.9791   12.7139   55.8914 H           1 PRL       0.0438
     21 H5         15.6928   14.7099   55.8315 H           1 PRL       0.0587
     22 H6         14.8291   16.3908   57.3239 H           1 PRL       0.0666
     23 H7         12.9225   17.2874   58.6942 H           1 PRL       0.0848
     24 H8          6.6662   16.5998   60.6781 H           1 PRL       0.1756
     25 H9          6.5250   15.1965   59.7678 H           1 PRL       0.1756
     26 H10        13.8382   11.9023   54.6137 H           1 PRL       0.1756
     27 H11        15.3152   12.7003   54.5936 H           1 PRL       0.1756
@<TRIPOS>BOND
     1     1    13  ar
     2     1     2  ar
     3     2     3  ar
     4     3    15   1
     5     3     4  ar
     6     4    11  ar
     7    11    10  ar
     8    11    13  ar
     9    13     9  ar
    10     9    12  ar
    11    12     8  ar
    12    12    14  ar
    13    14     5  ar
    14    14    10  ar
    15     5     6  ar
    16     6    16   1
    17     6     7  ar
    18     7     8  ar
    19     1    17   1
    20     2    18   1
    21     4    19   1
    22     5    20   1
    23     7    21   1
    24     8    22   1
    25     9    23   1
    26    15    24   1
    27    15    25   1
    28    16    26   1
    29    16    27   1
@<TRIPOS>SUBSTRUCTURE
     1  PRL      1

