@<TRIPOS>MOLECULE
1bcu_ligand_051
    27    29
SMALL
GAST_HUCK
****
This file was generated by PARSER (from files_GN.cpp)

@<TRIPOS>ATOM
      1 C1         13.1032   15.6477   58.2052 C.ar        1 PRL      -0.0483
      2 C2         13.1962   15.7042   56.8022 C.ar        1 PRL      -0.0317
      3 C3         14.4051   16.0835   56.1842 C.ar        1 PRL       0.0415
      4 C4         15.5310   16.3921   56.9741 C.ar        1 PRL      -0.0313
      5 C5         17.6543   16.9689   61.2322 C.ar        1 PRL      -0.0313
      6 C6         17.6361   16.9220   62.6412 C.ar        1 PRL       0.0415
      7 C7         16.4551   16.5506   63.3151 C.ar        1 PRL      -0.0317
      8 C8         15.2936   16.2302   62.5899 C.ar        1 PRL      -0.0483
      9 C9         14.1658   15.9411   60.4134 C.ar        1 PRL      -0.0279
     10 N10        16.5196   16.6588   59.1426 N.ar        1 PRL      -0.3286
     11 C11        15.4414   16.3447   58.3792 C.ar        1 PRL       0.0162
     12 C12        15.3049   16.2666   61.1785 C.ar        1 PRL       0.0016
     13 C13        14.2200   15.9729   59.0041 C.ar        1 PRL       0.0016
     14 C14        16.4983   16.6353   60.5002 C.ar        1 PRL       0.0162
     15 N15        14.4754   16.1632   54.8442 N.pl3       1 PRL      -0.3324
     16 N16        18.7424   17.2257   63.3427 N.pl3       1 PRL      -0.3324
     17 H1         12.2173   15.3724   58.6375 H           1 PRL       0.0666
     18 H2         12.3779   15.4707   56.2347 H           1 PRL       0.0587
     19 H3         16.4126   16.6619   56.5289 H           1 PRL       0.0438
     20 H4         18.5102   17.2379   60.7387 H           1 PRL       0.0438
     21 H5         16.4360   16.5097   64.3374 H           1 PRL       0.0587
     22 H6         14.4441   15.9639   63.0948 H           1 PRL       0.0666
     23 H7         13.2940   15.6786   60.8835 H           1 PRL       0.0848
     24 H8         13.6946   15.9650   54.3034 H           1 PRL       0.1756
     25 H9         15.3016   16.4351   54.4151 H           1 PRL       0.1756
     26 H10        19.5568   17.4818   62.8825 H           1 PRL       0.1756
     27 H11        18.7309   17.1825   64.3121 H           1 PRL       0.1756
@<TRIPOS>BOND
     1     1    13  ar
     2     1     2  ar
     3     2     3  ar
     4     3    15   1
     5     3     4  ar
     6     4    11  ar
     7    11    10  ar
     8    11    13  ar
     9    13     9  ar
    10     9    12  ar
    11    12     8  ar
    12    12    14  ar
    13    14     5  ar
    14    14    10  ar
    15     5     6  ar
    16     6    16   1
    17     6     7  ar
    18     7     8  ar
    19     1    17   1
    20     2    18   1
    21     4    19   1
    22     5    20   1
    23     7    21   1
    24     8    22   1
    25     9    23   1
    26    15    24   1
    27    15    25   1
    28    16    26   1
    29    16    27   1
@<TRIPOS>SUBSTRUCTURE
     1  PRL      1

