@<TRIPOS>MOLECULE
1bcu_ligand_063
    27    29
SMALL
GAST_HUCK
****
This file was generated by PARSER (from files_GN.cpp)

@<TRIPOS>ATOM
      1 C1         12.5713   16.2986   53.4385 C.ar        1 PRL      -0.0483
      2 C2         13.8242   16.4895   54.0492 C.ar        1 PRL      -0.0317
      3 C3         14.0561   16.0320   55.3609 C.ar        1 PRL       0.0415
      4 C4         13.0296   15.3712   56.0637 C.ar        1 PRL      -0.0313
      5 C5          8.5671   13.6470   56.3650 C.ar        1 PRL      -0.0313
      6 C6          7.2862   13.4214   55.8215 C.ar        1 PRL       0.0415
      7 C7          6.9889   13.8683   54.5180 C.ar        1 PRL      -0.0317
      8 C8          7.9662   14.5358   53.7565 C.ar        1 PRL      -0.0483
      9 C9         10.2626   15.4274   53.5633 C.ar        1 PRL      -0.0279
     10 N10        10.7827   14.5348   56.1325 N.ar        1 PRL      -0.3286
     11 C11        11.7739   15.1706   55.4564 C.ar        1 PRL       0.0162
     12 C12         9.2525   14.7645   54.2927 C.ar        1 PRL       0.0016
     13 C13        11.5367   15.6383   54.1351 C.ar        1 PRL       0.0016
     14 C14         9.5486   14.3159   55.6082 C.ar        1 PRL       0.0162
     15 N15        15.2579   16.2290   55.9303 N.pl3       1 PRL      -0.3324
     16 N16         6.3506   12.7812   56.5443 N.pl3       1 PRL      -0.3324
     17 H1         12.4221   16.6435   52.4864 H           1 PRL       0.0666
     18 H2         14.5680   16.9642   53.5340 H           1 PRL       0.0587
     19 H3         13.1957   15.0364   57.0168 H           1 PRL       0.0438
     20 H4          8.7852   13.3242   57.3119 H           1 PRL       0.0438
     21 H5          6.0607   13.7109   54.1177 H           1 PRL       0.0587
     22 H6          7.7317   14.8521   52.8122 H           1 PRL       0.0666
     23 H7         10.0709   15.7573   52.6133 H           1 PRL       0.0848
     24 H8         15.9611   16.6676   55.4253 H           1 PRL       0.1756
     25 H9         15.4293   15.9160   56.8328 H           1 PRL       0.1756
     26 H10         6.5553   12.4723   57.4413 H           1 PRL       0.1756
     27 H11         5.4685   12.6253   56.1709 H           1 PRL       0.1756
@<TRIPOS>BOND
     1     1    13  ar
     2     1     2  ar
     3     2     3  ar
     4     3    15   1
     5     3     4  ar
     6     4    11  ar
     7    11    10  ar
     8    11    13  ar
     9    13     9  ar
    10     9    12  ar
    11    12     8  ar
    12    12    14  ar
    13    14     5  ar
    14    14    10  ar
    15     5     6  ar
    16     6    16   1
    17     6     7  ar
    18     7     8  ar
    19     1    17   1
    20     2    18   1
    21     4    19   1
    22     5    20   1
    23     7    21   1
    24     8    22   1
    25     9    23   1
    26    15    24   1
    27    15    25   1
    28    16    26   1
    29    16    27   1
@<TRIPOS>SUBSTRUCTURE
     1  PRL      1

