@<TRIPOS>MOLECULE
1bcu_ligand_080
    27    29
SMALL
GAST_HUCK
****
This file was generated by PARSER (from files_GN.cpp)

@<TRIPOS>ATOM
      1 C1         15.4376   14.2345   57.0251 C.ar        1 PRL      -0.0483
      2 C2         15.4592   15.1819   55.9843 C.ar        1 PRL      -0.0317
      3 C3         14.2979   15.9156   55.6667 C.ar        1 PRL       0.0415
      4 C4         13.1108   15.6992   56.3940 C.ar        1 PRL      -0.0313
      5 C5         10.6280   13.4930   59.8453 C.ar        1 PRL      -0.0313
      6 C6         10.5283   12.5631   60.8991 C.ar        1 PRL       0.0415
      7 C7         11.6527   11.7969   61.2674 C.ar        1 PRL      -0.0317
      8 C8         12.8743   11.9554   60.5867 C.ar        1 PRL      -0.0483
      9 C9         14.1861   13.0740   58.8141 C.ar        1 PRL      -0.0279
     10 N10        11.9412   14.5480   58.1412 N.ar        1 PRL      -0.3286
     11 C11        13.0848   14.7536   57.4381 C.ar        1 PRL       0.0162
     12 C12        12.9830   12.8832   59.5269 C.ar        1 PRL       0.0016
     13 C13        14.2531   14.0121   57.7609 C.ar        1 PRL       0.0016
     14 C14        11.8473   13.6541   59.1591 C.ar        1 PRL       0.0162
     15 N15        14.3205   16.8210   54.6732 N.pl3       1 PRL      -0.3324
     16 N16         9.3613   12.4056   61.5490 N.pl3       1 PRL      -0.3324
     17 H1         16.2898   13.7107   57.2415 H           1 PRL       0.0666
     18 H2         16.3248   15.3336   55.4596 H           1 PRL       0.0587
     19 H3         12.2654   16.2298   56.1655 H           1 PRL       0.0438
     20 H4          9.8141   14.0518   59.5755 H           1 PRL       0.0438
     21 H5         11.5863   11.1187   62.0313 H           1 PRL       0.0587
     22 H6         13.6800   11.3906   60.8673 H           1 PRL       0.0666
     23 H7         15.0172   12.5287   59.0620 H           1 PRL       0.0848
     24 H8         15.1366   16.9736   54.1715 H           1 PRL       0.1756
     25 H9         13.5203   17.3247   54.4563 H           1 PRL       0.1756
     26 H10         8.5874   12.9312   61.2923 H           1 PRL       0.1756
     27 H11         9.2887   11.7625   62.2719 H           1 PRL       0.1756
@<TRIPOS>BOND
     1     1    13  ar
     2     1     2  ar
     3     2     3  ar
     4     3    15   1
     5     3     4  ar
     6     4    11  ar
     7    11    10  ar
     8    11    13  ar
     9    13     9  ar
    10     9    12  ar
    11    12     8  ar
    12    12    14  ar
    13    14     5  ar
    14    14    10  ar
    15     5     6  ar
    16     6    16   1
    17     6     7  ar
    18     7     8  ar
    19     1    17   1
    20     2    18   1
    21     4    19   1
    22     5    20   1
    23     7    21   1
    24     8    22   1
    25     9    23   1
    26    15    24   1
    27    15    25   1
    28    16    26   1
    29    16    27   1
@<TRIPOS>SUBSTRUCTURE
     1  PRL      1

