@<TRIPOS>MOLECULE
1bcu_ligand_016
    27    29
SMALL
GAST_HUCK
****
This file was generated by PARSER (from files_GN.cpp)

@<TRIPOS>ATOM
      1 C1          0.9365   19.3859   44.3980 C.ar        1 PRL      -0.0483
      2 C2          2.1962   18.9668   43.9359 C.ar        1 PRL      -0.0317
      3 C3          2.7358   17.7290   44.3446 C.ar        1 PRL       0.0415
      4 C4          1.9972   16.9024   45.2160 C.ar        1 PRL      -0.0313
      5 C5         -1.8722   16.0068   47.9131 C.ar        1 PRL      -0.0313
      6 C6         -3.1420   16.3582   48.4116 C.ar        1 PRL       0.0415
      7 C7         -3.7304   17.5805   48.0338 C.ar        1 PRL      -0.0317
      8 C8         -3.0506   18.4566   47.1653 C.ar        1 PRL      -0.0483
      9 C9         -1.0495   18.9636   45.8003 C.ar        1 PRL      -0.0279
     10 N10         0.0296   16.5299   46.5447 N.ar        1 PRL      -0.3286
     11 C11         0.7361   17.3173   45.6910 C.ar        1 PRL       0.0162
     12 C12        -1.7735   18.1146   46.6671 C.ar        1 PRL       0.0016
     13 C13         0.2019   18.5690   45.2853 C.ar        1 PRL       0.0016
     14 C14        -1.1882   16.8746   47.0383 C.ar        1 PRL       0.0162
     15 N15         3.9462   17.3336   43.9078 N.pl3       1 PRL      -0.3324
     16 N16        -3.7954   15.5259   49.2427 N.pl3       1 PRL      -0.3324
     17 H1          0.5720   20.2920   44.0869 H           1 PRL       0.0666
     18 H2          2.7071   19.5750   43.2983 H           1 PRL       0.0587
     19 H3          2.3831   16.0046   45.5131 H           1 PRL       0.0438
     20 H4         -1.4494   15.1163   48.1826 H           1 PRL       0.0438
     21 H5         -4.6541   17.8372   48.3925 H           1 PRL       0.0587
     22 H6         -3.4951   19.3386   46.8960 H           1 PRL       0.0666
     23 H7         -1.4464   19.8663   45.5259 H           1 PRL       0.0848
     24 H8          4.4583   17.9001   43.3133 H           1 PRL       0.1756
     25 H9          4.3206   16.4884   44.1991 H           1 PRL       0.1756
     26 H10        -3.3952   14.6789   49.4958 H           1 PRL       0.1756
     27 H11        -4.6703   15.7689   49.5857 H           1 PRL       0.1756
@<TRIPOS>BOND
     1     1    13  ar
     2     1     2  ar
     3     2     3  ar
     4     3    15   1
     5     3     4  ar
     6     4    11  ar
     7    11    10  ar
     8    11    13  ar
     9    13     9  ar
    10     9    12  ar
    11    12     8  ar
    12    12    14  ar
    13    14     5  ar
    14    14    10  ar
    15     5     6  ar
    16     6    16   1
    17     6     7  ar
    18     7     8  ar
    19     1    17   1
    20     2    18   1
    21     4    19   1
    22     5    20   1
    23     7    21   1
    24     8    22   1
    25     9    23   1
    26    15    24   1
    27    15    25   1
    28    16    26   1
    29    16    27   1
@<TRIPOS>SUBSTRUCTURE
     1  PRL      1

