@<TRIPOS>MOLECULE
1bcu_ligand_030
    27    29
SMALL
GAST_HUCK
****
This file was generated by PARSER (from files_GN.cpp)

@<TRIPOS>ATOM
      1 C1          8.8235   22.9128   48.7724 C.ar        1 PRL      -0.0483
      2 C2          9.9936   22.6849   48.0206 C.ar        1 PRL      -0.0317
      3 C3         10.9435   21.7396   48.4566 C.ar        1 PRL       0.0415
      4 C4         10.7222   21.0203   49.6480 C.ar        1 PRL      -0.0313
      5 C5          8.0513   19.9321   53.4895 C.ar        1 PRL      -0.0313
      6 C6          6.8939   20.0980   54.2796 C.ar        1 PRL       0.0415
      7 C7          5.9127   21.0335   53.8976 C.ar        1 PRL      -0.0317
      8 C8          6.0751   21.7949   52.7257 C.ar        1 PRL      -0.0483
      9 C9          7.4263   22.3757   50.7414 C.ar        1 PRL      -0.0279
     10 N10         9.3330   20.5404   51.5476 N.ar        1 PRL      -0.3286
     11 C11         9.5501   21.2382   50.4013 C.ar        1 PRL       0.0162
     12 C12         7.2273   21.6330   51.9267 C.ar        1 PRL       0.0016
     13 C13         8.5890   22.1884   49.9624 C.ar        1 PRL       0.0016
     14 C14         8.2229   20.6968   52.3172 C.ar        1 PRL       0.0162
     15 N15        12.0697   21.5320   47.7498 N.pl3       1 PRL      -0.3324
     16 N16         6.7199   19.3615   55.3923 N.pl3       1 PRL      -0.3324
     17 H1          8.1501   23.6116   48.4484 H           1 PRL       0.0666
     18 H2         10.1491   23.2160   47.1603 H           1 PRL       0.0587
     19 H3         11.4131   20.3407   49.9729 H           1 PRL       0.0438
     20 H4          8.7655   19.2527   53.7660 H           1 PRL       0.0438
     21 H5          5.0716   21.1596   54.4680 H           1 PRL       0.0587
     22 H6          5.3482   22.4626   52.4609 H           1 PRL       0.0666
     23 H7          6.7199   23.0553   50.4438 H           1 PRL       0.0848
     24 H8         12.2478   22.0421   46.9430 H           1 PRL       0.1756
     25 H9         12.7239   20.8838   48.0598 H           1 PRL       0.1756
     26 H10         7.3830   18.7036   55.6496 H           1 PRL       0.1756
     27 H11         5.9227   19.4819   55.9346 H           1 PRL       0.1756
@<TRIPOS>BOND
     1     1    13  ar
     2     1     2  ar
     3     2     3  ar
     4     3    15   1
     5     3     4  ar
     6     4    11  ar
     7    11    10  ar
     8    11    13  ar
     9    13     9  ar
    10     9    12  ar
    11    12     8  ar
    12    12    14  ar
    13    14     5  ar
    14    14    10  ar
    15     5     6  ar
    16     6    16   1
    17     6     7  ar
    18     7     8  ar
    19     1    17   1
    20     2    18   1
    21     4    19   1
    22     5    20   1
    23     7    21   1
    24     8    22   1
    25     9    23   1
    26    15    24   1
    27    15    25   1
    28    16    26   1
    29    16    27   1
@<TRIPOS>SUBSTRUCTURE
     1  PRL      1

