@<TRIPOS>MOLECULE
1bcu_ligand_031
    27    29
SMALL
GAST_HUCK
****
This file was generated by PARSER (from files_GN.cpp)

@<TRIPOS>ATOM
      1 C1          4.8632   17.5569   60.1198 C.ar        1 PRL      -0.0483
      2 C2          3.5716   17.0039   60.0350 C.ar        1 PRL      -0.0317
      3 C3          2.5975   17.5966   59.2059 C.ar        1 PRL       0.0415
      4 C4          2.9222   18.7387   58.4458 C.ar        1 PRL      -0.0313
      5 C5          6.0006   22.1496   57.0803 C.ar        1 PRL      -0.0313
      6 C6          7.2761   22.7490   57.1082 C.ar        1 PRL       0.0415
      7 C7          8.2894   22.2021   57.9204 C.ar        1 PRL      -0.0317
      8 C8          8.0360   21.0637   58.7054 C.ar        1 PRL      -0.0483
      9 C9          6.4698   19.3029   59.4415 C.ar        1 PRL      -0.0279
     10 N10         4.5221   20.4102   57.8146 N.ar        1 PRL      -0.3286
     11 C11         4.2123   19.2990   58.5318 C.ar        1 PRL       0.0162
     12 C12         6.7641   20.4521   58.6782 C.ar        1 PRL       0.0016
     13 C13         5.1923   18.7102   59.3757 C.ar        1 PRL       0.0016
     14 C14         5.7439   21.0007   57.8544 C.ar        1 PRL       0.0162
     15 N15         1.3595   17.0771   59.1518 N.pl3       1 PRL      -0.3324
     16 N16         7.5289   23.8370   56.3586 N.pl3       1 PRL      -0.3324
     17 H1          5.5569   17.1154   60.7290 H           1 PRL       0.0666
     18 H2          3.3453   16.1709   60.5829 H           1 PRL       0.0587
     19 H3          2.2204   19.1678   57.8374 H           1 PRL       0.0438
     20 H4          5.2609   22.5434   56.4923 H           1 PRL       0.0438
     21 H5          9.2187   22.6292   57.9440 H           1 PRL       0.0587
     22 H6          8.7832   20.6814   59.2907 H           1 PRL       0.0666
     23 H7          7.1902   18.8957   60.0463 H           1 PRL       0.0848
     24 H8          1.1333   16.3007   59.6883 H           1 PRL       0.1756
     25 H9          0.6831   17.4887   58.5912 H           1 PRL       0.1756
     26 H10         6.8336   24.2141   55.7978 H           1 PRL       0.1756
     27 H11         8.4090   24.2444   56.3734 H           1 PRL       0.1756
@<TRIPOS>BOND
     1     1    13  ar
     2     1     2  ar
     3     2     3  ar
     4     3    15   1
     5     3     4  ar
     6     4    11  ar
     7    11    10  ar
     8    11    13  ar
     9    13     9  ar
    10     9    12  ar
    11    12     8  ar
    12    12    14  ar
    13    14     5  ar
    14    14    10  ar
    15     5     6  ar
    16     6    16   1
    17     6     7  ar
    18     7     8  ar
    19     1    17   1
    20     2    18   1
    21     4    19   1
    22     5    20   1
    23     7    21   1
    24     8    22   1
    25     9    23   1
    26    15    24   1
    27    15    25   1
    28    16    26   1
    29    16    27   1
@<TRIPOS>SUBSTRUCTURE
     1  PRL      1

