@<TRIPOS>MOLECULE
1bcu_ligand_038
    27    29
SMALL
GAST_HUCK
****
This file was generated by PARSER (from files_GN.cpp)

@<TRIPOS>ATOM
      1 C1         14.5347   17.3496   63.1995 C.ar        1 PRL      -0.0483
      2 C2         13.4346   17.0730   64.0323 C.ar        1 PRL      -0.0317
      3 C3         12.2786   16.4633   63.5046 C.ar        1 PRL       0.0415
      4 C4         12.2243   16.1307   62.1363 C.ar        1 PRL      -0.0313
      5 C5         14.1737   15.9505   57.7647 C.ar        1 PRL      -0.0313
      6 C6         15.2287   16.2094   56.8668 C.ar        1 PRL       0.0415
      7 C7         16.4142   16.8140   57.3315 C.ar        1 PRL      -0.0317
      8 C8         16.5464   17.1674   58.6876 C.ar        1 PRL      -0.0483
      9 C9         15.5731   17.2691   60.9575 C.ar        1 PRL      -0.0279
     10 N10        13.2731   16.0770   59.9817 N.ar        1 PRL      -0.3286
     11 C11        13.3239   16.4027   61.2988 C.ar        1 PRL       0.0162
     12 C12        15.4892   16.9231   59.5914 C.ar        1 PRL       0.0016
     13 C13        14.4908   17.0159   61.8282 C.ar        1 PRL       0.0016
     14 C14        14.2964   16.3105   59.1203 C.ar        1 PRL       0.0162
     15 N15        11.2305   16.1988   64.3050 N.pl3       1 PRL      -0.3324
     16 N16        15.0940   15.9000   55.5655 N.pl3       1 PRL      -0.3324
     17 H1         15.3649   17.7923   63.6006 H           1 PRL       0.0666
     18 H2         13.4815   17.3179   65.0241 H           1 PRL       0.0587
     19 H3         11.3856   15.6894   61.7493 H           1 PRL       0.0438
     20 H4         13.3106   15.5141   57.4292 H           1 PRL       0.0438
     21 H5         17.1818   17.0106   56.6838 H           1 PRL       0.0587
     22 H6         17.4121   17.6111   59.0060 H           1 PRL       0.0666
     23 H7         16.4265   17.7019   61.3196 H           1 PRL       0.0848
     24 H8         11.2678   16.4256   65.2477 H           1 PRL       0.1756
     25 H9         10.4344   15.7797   63.9414 H           1 PRL       0.1756
     26 H10        14.2741   15.4932   55.2432 H           1 PRL       0.1756
     27 H11        15.8049   16.1111   54.9414 H           1 PRL       0.1756
@<TRIPOS>BOND
     1     1    13  ar
     2     1     2  ar
     3     2     3  ar
     4     3    15   1
     5     3     4  ar
     6     4    11  ar
     7    11    10  ar
     8    11    13  ar
     9    13     9  ar
    10     9    12  ar
    11    12     8  ar
    12    12    14  ar
    13    14     5  ar
    14    14    10  ar
    15     5     6  ar
    16     6    16   1
    17     6     7  ar
    18     7     8  ar
    19     1    17   1
    20     2    18   1
    21     4    19   1
    22     5    20   1
    23     7    21   1
    24     8    22   1
    25     9    23   1
    26    15    24   1
    27    15    25   1
    28    16    26   1
    29    16    27   1
@<TRIPOS>SUBSTRUCTURE
     1  PRL      1

