@<TRIPOS>MOLECULE
1bcu_ligand_078
    27    29
SMALL
GAST_HUCK
****
This file was generated by PARSER (from files_GN.cpp)

@<TRIPOS>ATOM
      1 C1          0.9379   19.2988   46.6156 C.ar        1 PRL      -0.0483
      2 C2          0.7610   20.2492   45.5928 C.ar        1 PRL      -0.0317
      3 C3          1.4038   20.0846   44.3490 C.ar        1 PRL       0.0415
      4 C4          2.2140   18.9534   44.1220 C.ar        1 PRL      -0.0313
      5 C5          4.2501   14.8711   45.5929 C.ar        1 PRL      -0.0313
      6 C6          4.4628   13.8746   46.5674 C.ar        1 PRL       0.0415
      7 C7          3.8471   13.9870   47.8304 C.ar        1 PRL      -0.0317
      8 C8          3.0259   15.0904   48.1260 C.ar        1 PRL      -0.0483
      9 C9          1.9762   17.2043   47.4056 C.ar        1 PRL      -0.0279
     10 N10         3.1939   16.9207   44.9334 N.ar        1 PRL      -0.3286
     11 C11         2.3992   18.0018   45.1445 C.ar        1 PRL       0.0162
     12 C12         2.8017   16.0887   47.1540 C.ar        1 PRL       0.0016
     13 C13         1.7620   18.1732   46.4034 C.ar        1 PRL       0.0016
     14 C14         3.4169   15.9707   45.8781 C.ar        1 PRL       0.0162
     15 N15         1.2508   21.0119   43.3879 N.pl3       1 PRL      -0.3324
     16 N16         5.2447   12.8154   46.2928 N.pl3       1 PRL      -0.3324
     17 H1          0.4666   19.4354   47.5136 H           1 PRL       0.0666
     18 H2          0.1648   21.0630   45.7606 H           1 PRL       0.0587
     19 H3          2.6753   18.8243   43.2170 H           1 PRL       0.0438
     20 H4          4.6940   14.7937   44.6731 H           1 PRL       0.0438
     21 H5          3.9924   13.2646   48.5403 H           1 PRL       0.0587
     22 H6          2.5884   15.1576   49.0484 H           1 PRL       0.0666
     23 H7          1.5287   17.3108   48.3204 H           1 PRL       0.0848
     24 H8          0.7060   21.7973   43.5534 H           1 PRL       0.1756
     25 H9          1.6995   20.9082   42.5342 H           1 PRL       0.1756
     26 H10         5.6694   12.7352   45.4245 H           1 PRL       0.1756
     27 H11         5.3802   12.1252   46.9608 H           1 PRL       0.1756
@<TRIPOS>BOND
     1     1    13  ar
     2     1     2  ar
     3     2     3  ar
     4     3    15   1
     5     3     4  ar
     6     4    11  ar
     7    11    10  ar
     8    11    13  ar
     9    13     9  ar
    10     9    12  ar
    11    12     8  ar
    12    12    14  ar
    13    14     5  ar
    14    14    10  ar
    15     5     6  ar
    16     6    16   1
    17     6     7  ar
    18     7     8  ar
    19     1    17   1
    20     2    18   1
    21     4    19   1
    22     5    20   1
    23     7    21   1
    24     8    22   1
    25     9    23   1
    26    15    24   1
    27    15    25   1
    28    16    26   1
    29    16    27   1
@<TRIPOS>SUBSTRUCTURE
     1  PRL      1

