@<TRIPOS>MOLECULE
1bcu_ligand_052
    27    29
SMALL
GAST_HUCK
****
This file was generated by PARSER (from files_GN.cpp)

@<TRIPOS>ATOM
      1 C1          8.0897   13.9373   45.2024 C.ar        1 PRL      -0.0483
      2 C2          8.1921   13.8752   46.6043 C.ar        1 PRL      -0.0317
      3 C3          7.0527   13.6019   47.3878 C.ar        1 PRL       0.0415
      4 C4          5.8073   13.3862   46.7639 C.ar        1 PRL      -0.0313
      5 C5          3.0589   13.0433   42.8522 C.ar        1 PRL      -0.0313
      6 C6          2.8809   13.0927   41.4548 C.ar        1 PRL       0.0415
      7 C7          3.9810   13.3667   40.6177 C.ar        1 PRL      -0.0317
      8 C8          5.2565   13.5856   41.1688 C.ar        1 PRL      -0.0483
      9 C9          6.7025   13.7673   43.1646 C.ar        1 PRL      -0.0279
     10 N10         4.5024   13.2307   44.7576 N.ar        1 PRL      -0.3286
     11 C11         5.7010   13.4417   45.3600 C.ar        1 PRL       0.0162
     12 C12         5.4435   13.5430   42.5682 C.ar        1 PRL       0.0016
     13 C13         6.8476   13.7198   44.5679 C.ar        1 PRL       0.0016
     14 C14         4.3319   13.2700   43.4108 C.ar        1 PRL       0.0162
     15 N15         7.1548   13.5467   48.7272 N.pl3       1 PRL      -0.3324
     16 N16         1.6651   12.8789   40.9215 N.pl3       1 PRL      -0.3324
     17 H1          8.9262   14.1410   44.6509 H           1 PRL       0.0666
     18 H2          9.1010   14.0267   47.0485 H           1 PRL       0.0587
     19 H3          4.9782   13.1873   47.3301 H           1 PRL       0.0438
     20 H4          2.2619   12.8453   43.4634 H           1 PRL       0.0438
     21 H5          3.8590   13.4095   39.6030 H           1 PRL       0.0587
     22 H6          6.0430   13.7861   40.5449 H           1 PRL       0.0666
     23 H7          7.5161   13.9686   42.5753 H           1 PRL       0.0848
     24 H8          8.0121   13.6947   49.1571 H           1 PRL       0.1756
     25 H9          6.3711   13.3593   49.2682 H           1 PRL       0.1756
     26 H10         0.9076   12.6878   41.4971 H           1 PRL       0.1756
     27 H11         1.5426   12.9134   39.9598 H           1 PRL       0.1756
@<TRIPOS>BOND
     1     1    13  ar
     2     1     2  ar
     3     2     3  ar
     4     3    15   1
     5     3     4  ar
     6     4    11  ar
     7    11    10  ar
     8    11    13  ar
     9    13     9  ar
    10     9    12  ar
    11    12     8  ar
    12    12    14  ar
    13    14     5  ar
    14    14    10  ar
    15     5     6  ar
    16     6    16   1
    17     6     7  ar
    18     7     8  ar
    19     1    17   1
    20     2    18   1
    21     4    19   1
    22     5    20   1
    23     7    21   1
    24     8    22   1
    25     9    23   1
    26    15    24   1
    27    15    25   1
    28    16    26   1
    29    16    27   1
@<TRIPOS>SUBSTRUCTURE
     1  PRL      1

