@<TRIPOS>MOLECULE
1e66_ligand_048
    40    43
SMALL
GAST_HUCK
****
This file was generated by PARSER (from files_GN.cpp)

@<TRIPOS>ATOM
      1 N1          1.3232   67.1507   63.0305 N.ar        1 HUX      -0.3279
      2 N2          2.6022   68.8175   66.5711 N.pl3       1 HUX      -0.3283
      3 C1         -1.7284   68.9997   63.8720 C.ar        1 HUX       0.0385
      4 C2         -0.8180   68.1826   63.1772 C.ar        1 HUX      -0.0382
      5 C3          0.4632   67.9436   63.7108 C.ar        1 HUX       0.0183
      6 C4          2.5778   66.8656   63.4513 C.ar        1 HUX       0.0124
      7 C5          3.4002   65.9611   62.6002 C.3         1 HUX      -0.0021
      8 C6          4.8964   65.8720   63.0205 C.3         1 HUX      -0.0218
      9 C7          5.6232   67.0472   62.5377 C.2         1 HUX      -0.1032
     10 C8          5.8167   68.1638   63.2764 C.2         1 HUX      -0.0790
     11 C9          5.4239   68.2195   64.6929 C.3         1 HUX      -0.0183
     12 C10         5.6267   70.0072   61.5991 C.3         1 HUX      -0.0568
     13 C11         4.4409   67.0892   65.1395 C.3         1 HUX       0.0005
     14 C12         4.9682   65.7422   64.5648 C.3         1 HUX      -0.0333
     15 C13         3.0417   67.3980   64.6846 C.ar        1 HUX       0.0103
     16 C14         2.1739   68.2548   65.4197 C.ar        1 HUX       0.0669
     17 C15         0.8630   68.5247   64.9444 C.ar        1 HUX       0.0195
     18 C16        -0.0725   69.3411   65.6293 C.ar        1 HUX      -0.0525
     19 C17        -1.3548   69.5715   65.1016 C.ar        1 HUX      -0.0494
     20 C18         6.4887   69.3166   62.6799 C.3         1 HUX      -0.0310
     21 CL1        -3.2572   69.3193   63.2215 Cl          1 HUX      -0.0699
     22 H1          3.4981   68.6479   66.8971 H           1 HUX       0.1779
     23 H2          2.0235   69.4062   67.0774 H           1 HUX       0.1779
     24 H3         -1.0880   67.7577   62.2868 H           1 HUX       0.0596
     25 H4          3.3331   66.2820   61.5567 H           1 HUX       0.0470
     26 H5          2.9671   64.9604   62.6666 H           1 HUX       0.0470
     27 H6          5.3460   64.9785   62.5761 H           1 HUX       0.0401
     28 H7          5.9100   67.0383   61.5844 H           1 HUX       0.0247
     29 H8          6.3366   68.1452   65.2903 H           1 HUX       0.0431
     30 H9          4.9741   69.1920   64.9160 H           1 HUX       0.0431
     31 H10         6.1562   70.8738   61.2022 H           1 HUX       0.0251
     32 H11         4.6811   70.3392   62.0273 H           1 HUX       0.0251
     33 H12         5.4129   69.3304   60.7731 H           1 HUX       0.0251
     34 H13         4.4542   66.9997   66.2251 H           1 HUX       0.0444
     35 H14         5.9987   65.5572   64.8840 H           1 HUX       0.0305
     36 H15         4.3565   64.9047   64.9138 H           1 HUX       0.0305
     37 H16         0.1649   69.7830   66.5194 H           1 HUX       0.0636
     38 H17        -2.0108   70.1678   65.6138 H           1 HUX       0.0590
     39 H18         7.4372   68.9984   62.2437 H           1 HUX       0.0408
     40 H19         6.7235   70.0626   63.4440 H           1 HUX       0.0408
@<TRIPOS>BOND
     1     1     5  ar
     2     1     6  ar
     3     6    15  ar
     4     6     7   1
     5     7     8   1
     6     8    14   1
     7     8     9   1
     8     9    10   2
     9    10    20   1
    10    10    11   1
    11    11    13   1
    12    13    15   1
    13    13    14   1
    14    15    16  ar
    15    16     2   1
    16    16    17  ar
    17    17    18  ar
    18    17     5  ar
    19     5     4  ar
    20     4     3  ar
    21     3    19  ar
    22    18    19  ar
    23    20    12   1
    24     3    21   1
    25     2    22   1
    26     2    23   1
    27     4    24   1
    28     7    25   1
    29     7    26   1
    30     8    27   1
    31     9    28   1
    32    11    29   1
    33    11    30   1
    34    12    31   1
    35    12    32   1
    36    12    33   1
    37    13    34   1
    38    14    35   1
    39    14    36   1
    40    18    37   1
    41    19    38   1
    42    20    39   1
    43    20    40   1
@<TRIPOS>SUBSTRUCTURE
     1  HUX      3

