@<TRIPOS>MOLECULE
1e66_ligand_041
    40    43
SMALL
GAST_HUCK
****
This file was generated by PARSER (from files_GN.cpp)

@<TRIPOS>ATOM
      1 N1          5.1313   68.9977   66.7406 N.ar        1 HUX      -0.3279
      2 N2          2.8907   71.7791   68.7914 N.pl3       1 HUX      -0.3283
      3 C1          7.8417   70.5757   68.6471 C.ar        1 HUX       0.0385
      4 C2          7.1720   69.7434   67.7313 C.ar        1 HUX      -0.0382
      5 C3          5.7765   69.8554   67.5660 C.ar        1 HUX       0.0183
      6 C4          3.7876   69.0006   66.5537 C.ar        1 HUX       0.0124
      7 C5          3.2205   67.9948   65.6131 C.3         1 HUX      -0.0021
      8 C6          1.6612   67.9314   65.6150 C.3         1 HUX      -0.0218
      9 C7          1.1665   67.1614   66.7614 C.2         1 HUX      -0.1032
     10 C8          0.7662   67.7113   67.9326 C.2         1 HUX      -0.0790
     11 C9          0.7518   69.1695   68.1115 C.3         1 HUX      -0.0183
     12 C10         1.4290   66.1053   69.7387 C.3         1 HUX      -0.0568
     13 C11         1.4948   69.9824   67.0049 C.3         1 HUX       0.0005
     14 C12         1.1106   69.3832   65.6235 C.3         1 HUX      -0.0333
     15 C13         2.9847   69.9678   67.2217 C.ar        1 HUX       0.0103
     16 C14         3.6265   70.8763   68.1068 C.ar        1 HUX       0.0669
     17 C15         5.0358   70.8347   68.2815 C.ar        1 HUX       0.0195
     18 C16         5.7442   71.7084   69.1424 C.ar        1 HUX      -0.0525
     19 C17         7.1305   71.5724   69.3345 C.ar        1 HUX      -0.0494
     20 C18         0.2848   66.8698   69.0334 C.3         1 HUX      -0.0310
     21 CL1         9.4875   70.3554   68.9704 Cl          1 HUX      -0.0699
     22 H1          1.9276   71.8295   68.6780 H           1 HUX       0.1779
     23 H2          3.3247   72.4109   69.3818 H           1 HUX       0.1779
     24 H3          7.6958   69.0384   67.2080 H           1 HUX       0.0596
     25 H4          3.6259   67.0053   65.8414 H           1 HUX       0.0470
     26 H5          3.5601   68.2609   64.6087 H           1 HUX       0.0470
     27 H6          1.3229   67.4405   64.6967 H           1 HUX       0.0401
     28 H7          1.1762   66.1734   66.6662 H           1 HUX       0.0247
     29 H8          1.1876   69.4164   69.0831 H           1 HUX       0.0431
     30 H9         -0.2943   69.4912   68.1338 H           1 HUX       0.0431
     31 H10         1.0186   65.4993   70.5488 H           1 HUX       0.0251
     32 H11         2.1537   66.8055   70.1624 H           1 HUX       0.0251
     33 H12         1.9430   65.4454   69.0382 H           1 HUX       0.0251
     34 H13         1.1291   71.0099   67.0263 H           1 HUX       0.0444
     35 H14         0.0243   69.3865   65.4876 H           1 HUX       0.0305
     36 H15         1.5540   69.9677   64.8114 H           1 HUX       0.0305
     37 H16         5.2567   72.4402   69.6572 H           1 HUX       0.0636
     38 H17         7.6177   72.1907   69.9871 H           1 HUX       0.0590
     39 H18        -0.2233   67.4689   69.7951 H           1 HUX       0.0408
     40 H19        -0.4584   66.1602   68.6605 H           1 HUX       0.0408
@<TRIPOS>BOND
     1     1     5  ar
     2     1     6  ar
     3     6    15  ar
     4     6     7   1
     5     7     8   1
     6     8    14   1
     7     8     9   1
     8     9    10   2
     9    10    20   1
    10    10    11   1
    11    11    13   1
    12    13    15   1
    13    13    14   1
    14    15    16  ar
    15    16     2   1
    16    16    17  ar
    17    17    18  ar
    18    17     5  ar
    19     5     4  ar
    20     4     3  ar
    21     3    19  ar
    22    18    19  ar
    23    20    12   1
    24     3    21   1
    25     2    22   1
    26     2    23   1
    27     4    24   1
    28     7    25   1
    29     7    26   1
    30     8    27   1
    31     9    28   1
    32    11    29   1
    33    11    30   1
    34    12    31   1
    35    12    32   1
    36    12    33   1
    37    13    34   1
    38    14    35   1
    39    14    36   1
    40    18    37   1
    41    19    38   1
    42    20    39   1
    43    20    40   1
@<TRIPOS>SUBSTRUCTURE
     1  HUX      3

