@<TRIPOS>MOLECULE
1e66_ligand_036
    40    43
SMALL
GAST_HUCK
****
This file was generated by PARSER (from files_GN.cpp)

@<TRIPOS>ATOM
      1 N1          0.0698   68.7759   62.9833 N.ar        1 HUX      -0.3279
      2 N2         -0.0624   67.7574   66.9745 N.pl3       1 HUX      -0.3283
      3 C1         -3.3925   69.7543   63.6561 C.ar        1 HUX       0.0385
      4 C2         -2.1870   69.5168   62.9712 C.ar        1 HUX      -0.0382
      5 C3         -1.0864   68.9707   63.6570 C.ar        1 HUX       0.0183
      6 C4          1.1859   68.2611   63.5490 C.ar        1 HUX       0.0124
      7 C5          2.3800   68.1090   62.6734 C.3         1 HUX      -0.0021
      8 C6          3.6764   67.6936   63.4367 C.3         1 HUX      -0.0218
      9 C7          4.2927   68.8551   64.0916 C.2         1 HUX      -0.1032
     10 C8          4.1136   69.1760   65.3944 C.2         1 HUX      -0.0790
     11 C9          3.2335   68.3671   66.2540 C.3         1 HUX      -0.0183
     12 C10         5.9867   69.8947   66.9223 C.3         1 HUX      -0.0568
     13 C11         2.3997   67.2634   65.5263 C.3         1 HUX       0.0005
     14 C12         3.3126   66.5872   64.4655 C.3         1 HUX      -0.0333
     15 C13         1.1648   67.8621   64.9136 C.ar        1 HUX       0.0103
     16 C14        -0.0244   68.0847   65.6635 C.ar        1 HUX       0.0669
     17 C15        -1.1714   68.6431   65.0379 C.ar        1 HUX       0.0195
     18 C16        -2.3989   68.8840   65.7056 C.ar        1 HUX      -0.0525
     19 C17        -3.4986   69.4326   65.0208 C.ar        1 HUX      -0.0494
     20 C18         4.8168   70.3136   65.9993 C.3         1 HUX      -0.0310
     21 CL1        -4.6910   70.4684   62.8443 Cl          1 HUX      -0.0699
     22 H1          0.7177   67.3821   67.4106 H           1 HUX       0.1779
     23 H2         -0.8666   67.9015   67.4957 H           1 HUX       0.1779
     24 H3         -2.1016   69.7648   61.9816 H           1 HUX       0.0596
     25 H4          2.5533   69.0428   62.1273 H           1 HUX       0.0470
     26 H5          2.1493   67.3404   61.9302 H           1 HUX       0.0470
     27 H6          4.3945   67.2755   62.7204 H           1 HUX       0.0401
     28 H7          4.8511   69.4436   63.5155 H           1 HUX       0.0247
     29 H8          2.5573   69.0345   66.7960 H           1 HUX       0.0431
     30 H9          3.8572   67.8762   66.9999 H           1 HUX       0.0431
     31 H10         6.4769   70.7870   67.3194 H           1 HUX       0.0251
     32 H11         6.7243   69.3088   66.3655 H           1 HUX       0.0251
     33 H12         5.6372   69.3067   67.7736 H           1 HUX       0.0251
     34 H13         2.1195   66.4885   66.2463 H           1 HUX       0.0444
     35 H14         4.2167   66.1844   64.9334 H           1 HUX       0.0305
     36 H15         2.7867   65.7596   63.9804 H           1 HUX       0.0305
     37 H16        -2.5124   68.6691   66.6982 H           1 HUX       0.0636
     38 H17        -4.3720   69.6058   65.5243 H           1 HUX       0.0590
     39 H18         4.1066   70.9013   66.5830 H           1 HUX       0.0408
     40 H19         5.2273   70.9842   65.2407 H           1 HUX       0.0408
@<TRIPOS>BOND
     1     1     5  ar
     2     1     6  ar
     3     6    15  ar
     4     6     7   1
     5     7     8   1
     6     8    14   1
     7     8     9   1
     8     9    10   2
     9    10    20   1
    10    10    11   1
    11    11    13   1
    12    13    15   1
    13    13    14   1
    14    15    16  ar
    15    16     2   1
    16    16    17  ar
    17    17    18  ar
    18    17     5  ar
    19     5     4  ar
    20     4     3  ar
    21     3    19  ar
    22    18    19  ar
    23    20    12   1
    24     3    21   1
    25     2    22   1
    26     2    23   1
    27     4    24   1
    28     7    25   1
    29     7    26   1
    30     8    27   1
    31     9    28   1
    32    11    29   1
    33    11    30   1
    34    12    31   1
    35    12    32   1
    36    12    33   1
    37    13    34   1
    38    14    35   1
    39    14    36   1
    40    18    37   1
    41    19    38   1
    42    20    39   1
    43    20    40   1
@<TRIPOS>SUBSTRUCTURE
     1  HUX      3

