@<TRIPOS>MOLECULE
1e66_ligand_007
    40    43
SMALL
GAST_HUCK
****
This file was generated by PARSER (from files_GN.cpp)

@<TRIPOS>ATOM
      1 N1          3.3211   70.2723   67.7488 N.ar        1 HUX      -0.3279
      2 N2          4.6603   67.5740   64.9328 N.pl3       1 HUX      -0.3283
      3 C1          6.8976   71.0729   67.8897 C.ar        1 HUX       0.0385
      4 C2          5.5144   71.1169   68.1487 C.ar        1 HUX      -0.0382
      5 C3          4.6456   70.2327   67.4778 C.ar        1 HUX       0.0183
      6 C4          2.4130   69.4572   67.1601 C.ar        1 HUX       0.0124
      7 C5          0.9977   69.5943   67.5929 C.3         1 HUX      -0.0021
      8 C6         -0.0072   68.7470   66.7518 C.3         1 HUX      -0.0218
      9 C7         -0.3263   69.4116   65.4814 C.2         1 HUX      -0.1032
     10 C8          0.3200   69.1731   64.3160 C.2         1 HUX      -0.0790
     11 C9          1.3457   68.1223   64.2241 C.3         1 HUX      -0.0183
     12 C10        -1.4158   69.3620   62.5239 C.3         1 HUX      -0.0568
     13 C11         1.8401   67.5529   65.5934 C.3         1 HUX       0.0005
     14 C12         0.6100   67.3393   66.5197 C.3         1 HUX      -0.0333
     15 C13         2.8445   68.4819   66.2179 C.ar        1 HUX       0.0103
     16 C14         4.2234   68.4382   65.8764 C.ar        1 HUX       0.0669
     17 C15         5.1436   69.3013   66.5264 C.ar        1 HUX       0.0195
     18 C16         6.5362   69.2806   66.2768 C.ar        1 HUX      -0.0525
     19 C17         7.4023   70.1590   66.9477 C.ar        1 HUX      -0.0494
     20 C18        -0.0731   69.8762   63.0883 C.3         1 HUX      -0.0310
     21 CL1         7.9631   72.0938   68.7164 Cl          1 HUX      -0.0699
     22 H1          4.0398   66.9889   64.4746 H           1 HUX       0.1779
     23 H2          5.6000   67.5336   64.7007 H           1 HUX       0.1779
     24 H3          5.1407   71.7872   68.8267 H           1 HUX       0.0596
     25 H4          0.7083   70.6491   67.5657 H           1 HUX       0.0470
     26 H5          0.9441   69.2693   68.6362 H           1 HUX       0.0470
     27 H6         -0.9304   68.6259   67.3280 H           1 HUX       0.0401
     28 H7         -1.0387   70.1067   65.5048 H           1 HUX       0.0247
     29 H8          2.2062   68.4990   63.6634 H           1 HUX       0.0431
     30 H9          0.9224   67.2997   63.6403 H           1 HUX       0.0431
     31 H10        -1.6577   69.8909   61.5995 H           1 HUX       0.0251
     32 H11        -2.2280   69.5210   63.2353 H           1 HUX       0.0251
     33 H12        -1.3397   68.2946   62.3063 H           1 HUX       0.0251
     34 H13         2.2932   66.5691   65.4379 H           1 HUX       0.0444
     35 H14         0.9194   66.8887   67.4683 H           1 HUX       0.0305
     36 H15        -0.1170   66.6685   66.0553 H           1 HUX       0.0305
     37 H16         6.9448   68.6198   65.6140 H           1 HUX       0.0636
     38 H17         8.4011   70.1236   66.7422 H           1 HUX       0.0590
     39 H18         0.6794   69.7432   62.3046 H           1 HUX       0.0408
     40 H19        -0.1392   70.9525   63.2731 H           1 HUX       0.0408
@<TRIPOS>BOND
     1     1     5  ar
     2     1     6  ar
     3     6    15  ar
     4     6     7   1
     5     7     8   1
     6     8    14   1
     7     8     9   1
     8     9    10   2
     9    10    20   1
    10    10    11   1
    11    11    13   1
    12    13    15   1
    13    13    14   1
    14    15    16  ar
    15    16     2   1
    16    16    17  ar
    17    17    18  ar
    18    17     5  ar
    19     5     4  ar
    20     4     3  ar
    21     3    19  ar
    22    18    19  ar
    23    20    12   1
    24     3    21   1
    25     2    22   1
    26     2    23   1
    27     4    24   1
    28     7    25   1
    29     7    26   1
    30     8    27   1
    31     9    28   1
    32    11    29   1
    33    11    30   1
    34    12    31   1
    35    12    32   1
    36    12    33   1
    37    13    34   1
    38    14    35   1
    39    14    36   1
    40    18    37   1
    41    19    38   1
    42    20    39   1
    43    20    40   1
@<TRIPOS>SUBSTRUCTURE
     1  HUX      3

