@<TRIPOS>MOLECULE
1e66_ligand_002
    40    43
SMALL
GAST_HUCK
****
This file was generated by PARSER (from files_GN.cpp)

@<TRIPOS>ATOM
      1 N1          1.0687   68.7969   64.3567 N.ar        1 HUX      -0.3279
      2 N2          4.2030   70.4993   66.4152 N.pl3       1 HUX      -0.3283
      3 C1          3.5061   68.8500   61.6250 C.ar        1 HUX       0.0385
      4 C2          2.3185   68.6250   62.3427 C.ar        1 HUX      -0.0382
      5 C3          2.2294   69.0060   63.6953 C.ar        1 HUX       0.0183
      6 C4          0.8759   69.1329   65.6543 C.ar        1 HUX       0.0124
      7 C5         -0.4814   68.8860   66.2138 C.3         1 HUX      -0.0021
      8 C6         -0.5687   69.1095   67.7511 C.3         1 HUX      -0.0218
      9 C7         -0.0203   67.9559   68.4699 C.2         1 HUX      -0.1032
     10 C8          1.2238   67.9119   69.0009 C.2         1 HUX      -0.0790
     11 C9          2.1594   69.0379   68.8121 C.3         1 HUX      -0.0183
     12 C10         0.7229   66.2082   70.8456 C.3         1 HUX      -0.0568
     13 C11         1.6821   70.1579   67.8249 C.3         1 HUX       0.0005
     14 C12         0.1740   70.4262   68.1030 C.3         1 HUX      -0.0333
     15 C13         1.9243   69.7521   66.3903 C.ar        1 HUX       0.0103
     16 C14         3.1713   69.9595   65.7324 C.ar        1 HUX       0.0669
     17 C15         3.3312   69.6062   64.3651 C.ar        1 HUX       0.0195
     18 C16         4.5193   69.8244   63.6199 C.ar        1 HUX      -0.0525
     19 C17         4.6055   69.4518   62.2658 C.ar        1 HUX      -0.0494
     20 C18         1.6834   66.7300   69.7452 C.3         1 HUX      -0.0310
     21 CL1         3.5983   68.4069   59.9943 Cl          1 HUX      -0.0699
     22 H1          4.1022   70.7372   67.3477 H           1 HUX       0.1779
     23 H2          5.0525   70.6509   65.9792 H           1 HUX       0.1779
     24 H3          1.5182   68.1835   61.8801 H           1 HUX       0.0596
     25 H4         -0.8007   67.8690   65.9708 H           1 HUX       0.0470
     26 H5         -1.1733   69.5707   65.7178 H           1 HUX       0.0470
     27 H6         -1.6164   69.2198   68.0378 H           1 HUX       0.0401
     28 H7         -0.5967   67.1473   68.5198 H           1 HUX       0.0247
     29 H8          3.1296   68.6577   68.4706 H           1 HUX       0.0431
     30 H9          2.3338   69.4928   69.7907 H           1 HUX       0.0431
     31 H10         1.2167   65.4411   71.4481 H           1 HUX       0.0251
     32 H11        -0.1702   65.7644   70.4003 H           1 HUX       0.0251
     33 H12         0.4268   67.0187   71.5142 H           1 HUX       0.0251
     34 H13         2.2172   71.0881   68.0438 H           1 HUX       0.0444
     35 H14        -0.1986   71.2560   67.4970 H           1 HUX       0.0305
     36 H15         0.0101   70.6909   69.1512 H           1 HUX       0.0305
     37 H16         5.3366   70.2627   64.0502 H           1 HUX       0.0636
     38 H17         5.4719   69.6213   61.7484 H           1 HUX       0.0590
     39 H18         2.6350   66.9474   70.2489 H           1 HUX       0.0408
     40 H19         1.8703   65.9252   69.0278 H           1 HUX       0.0408
@<TRIPOS>BOND
     1     1     5  ar
     2     1     6  ar
     3     6    15  ar
     4     6     7   1
     5     7     8   1
     6     8    14   1
     7     8     9   1
     8     9    10   2
     9    10    20   1
    10    10    11   1
    11    11    13   1
    12    13    15   1
    13    13    14   1
    14    15    16  ar
    15    16     2   1
    16    16    17  ar
    17    17    18  ar
    18    17     5  ar
    19     5     4  ar
    20     4     3  ar
    21     3    19  ar
    22    18    19  ar
    23    20    12   1
    24     3    21   1
    25     2    22   1
    26     2    23   1
    27     4    24   1
    28     7    25   1
    29     7    26   1
    30     8    27   1
    31     9    28   1
    32    11    29   1
    33    11    30   1
    34    12    31   1
    35    12    32   1
    36    12    33   1
    37    13    34   1
    38    14    35   1
    39    14    36   1
    40    18    37   1
    41    19    38   1
    42    20    39   1
    43    20    40   1
@<TRIPOS>SUBSTRUCTURE
     1  HUX      3

