@<TRIPOS>MOLECULE
1e66_ligand_023
    40    43
SMALL
GAST_HUCK
****
This file was generated by PARSER (from files_GN.cpp)

@<TRIPOS>ATOM
      1 N1          3.1846   62.9189   73.7979 N.ar        1 HUX      -0.3279
      2 N2          0.6270   64.3416   70.9012 N.pl3       1 HUX      -0.3283
      3 C1          0.3791   63.8218   75.9799 C.ar        1 HUX       0.0385
      4 C2          1.6383   63.3582   75.5549 C.ar        1 HUX      -0.0382
      5 C3          1.9757   63.3855   74.1872 C.ar        1 HUX       0.0183
      6 C4          3.6045   62.9005   72.5092 C.ar        1 HUX       0.0124
      7 C5          4.9721   62.3735   72.2478 C.3         1 HUX      -0.0021
      8 C6          5.3016   62.1989   70.7335 C.3         1 HUX      -0.0218
      9 C7          4.7032   60.9676   70.2140 C.2         1 HUX      -0.1032
     10 C8          3.4974   60.9072   69.6026 C.2         1 HUX      -0.0790
     11 C9          2.7407   62.1356   69.3075 C.3         1 HUX      -0.0183
     12 C10         2.6013   58.6769   70.3403 C.3         1 HUX      -0.0568
     13 C11         3.2416   63.4155   70.0558 C.3         1 HUX       0.0005
     14 C12         4.7941   63.4501   69.9649 C.3         1 HUX      -0.0333
     15 C13         2.7626   63.4200   71.4862 C.ar        1 HUX       0.0103
     16 C14         1.4714   63.8905   71.8548 C.ar        1 HUX       0.0669
     17 C15         1.0649   63.8837   73.2176 C.ar        1 HUX       0.0195
     18 C16        -0.1983   64.3440   73.6678 C.ar        1 HUX      -0.0525
     19 C17        -0.5378   64.3126   75.0327 C.ar        1 HUX      -0.0494
     20 C18         2.9663   59.6122   69.1618 C.3         1 HUX      -0.0310
     21 CL1        -0.0331   63.7816   77.6208 Cl          1 HUX      -0.0699
     22 H1          0.8928   64.3342   69.9695 H           1 HUX       0.1779
     23 H2         -0.2543   64.6669   71.1361 H           1 HUX       0.1779
     24 H3          2.3157   63.0084   76.2370 H           1 HUX       0.0596
     25 H4          5.1006   61.4197   72.7686 H           1 HUX       0.0470
     26 H5          5.6910   63.0743   72.6808 H           1 HUX       0.0470
     27 H6          6.3862   62.1310   70.6119 H           1 HUX       0.0401
     28 H7          5.1936   60.1240   70.4005 H           1 HUX       0.0247
     29 H8          1.6830   61.9792   69.5390 H           1 HUX       0.0431
     30 H9          2.8079   62.3149   68.2302 H           1 HUX       0.0431
     31 H10         2.2248   57.7285   69.9556 H           1 HUX       0.0251
     32 H11         1.8262   59.1341   70.9586 H           1 HUX       0.0251
     33 H12         3.4743   58.4685   70.9621 H           1 HUX       0.0251
     34 H13         2.8753   64.3078   69.5398 H           1 HUX       0.0444
     35 H14         5.1224   63.4206   68.9213 H           1 HUX       0.0305
     36 H15         5.1885   64.3675   70.4132 H           1 HUX       0.0305
     37 H16        -0.8878   64.7085   73.0094 H           1 HUX       0.0636
     38 H17        -1.4571   64.6487   75.3312 H           1 HUX       0.0590
     39 H18         3.7018   59.1140   68.5237 H           1 HUX       0.0408
     40 H19         2.0641   59.7453   68.5576 H           1 HUX       0.0408
@<TRIPOS>BOND
     1     1     5  ar
     2     1     6  ar
     3     6    15  ar
     4     6     7   1
     5     7     8   1
     6     8    14   1
     7     8     9   1
     8     9    10   2
     9    10    20   1
    10    10    11   1
    11    11    13   1
    12    13    15   1
    13    13    14   1
    14    15    16  ar
    15    16     2   1
    16    16    17  ar
    17    17    18  ar
    18    17     5  ar
    19     5     4  ar
    20     4     3  ar
    21     3    19  ar
    22    18    19  ar
    23    20    12   1
    24     3    21   1
    25     2    22   1
    26     2    23   1
    27     4    24   1
    28     7    25   1
    29     7    26   1
    30     8    27   1
    31     9    28   1
    32    11    29   1
    33    11    30   1
    34    12    31   1
    35    12    32   1
    36    12    33   1
    37    13    34   1
    38    14    35   1
    39    14    36   1
    40    18    37   1
    41    19    38   1
    42    20    39   1
    43    20    40   1
@<TRIPOS>SUBSTRUCTURE
     1  HUX      3

