@<TRIPOS>MOLECULE
1e66_ligand_039
    40    43
SMALL
GAST_HUCK
****
This file was generated by PARSER (from files_GN.cpp)

@<TRIPOS>ATOM
      1 N1          4.2528   60.3731   71.7605 N.ar        1 HUX      -0.3279
      2 N2          0.4473   61.8425   71.1515 N.pl3       1 HUX      -0.3283
      3 C1          2.3869   57.2647   72.3152 C.ar        1 HUX       0.0385
      4 C2          3.4565   58.1635   72.1986 C.ar        1 HUX      -0.0382
      5 C3          3.2106   59.5197   71.8817 C.ar        1 HUX       0.0183
      6 C4          4.1128   61.6855   71.4584 C.ar        1 HUX       0.0124
      7 C5          5.3571   62.5042   71.3772 C.3         1 HUX      -0.0021
      8 C6          5.1369   63.9426   70.8232 C.3         1 HUX      -0.0218
      9 C7          5.0419   63.9376   69.3578 C.2         1 HUX      -0.1032
     10 C8          3.8739   63.8684   68.6802 C.2         1 HUX      -0.0790
     11 C9          2.5789   63.9059   69.3909 C.3         1 HUX      -0.0183
     12 C10         3.5183   62.4744   66.6492 C.3         1 HUX      -0.0568
     13 C11         2.6589   63.6961   70.9324 C.3         1 HUX       0.0005
     14 C12         3.8526   64.5315   71.4597 C.3         1 HUX      -0.0333
     15 C13         2.8138   62.2375   71.2714 C.ar        1 HUX       0.0103
     16 C14         1.6924   61.3632   71.3718 C.ar        1 HUX       0.0669
     17 C15         1.8869   59.9933   71.6900 C.ar        1 HUX       0.0195
     18 C16         0.8194   59.0668   71.8339 C.ar        1 HUX      -0.0525
     19 C17         1.0683   57.7172   72.1307 C.ar        1 HUX      -0.0494
     20 C18         3.8552   63.8671   67.2150 C.3         1 HUX      -0.0310
     21 CL1         2.6651   55.6349   72.6918 Cl          1 HUX      -0.0699
     22 H1          0.3111   62.7751   70.9261 H           1 HUX       0.1779
     23 H2         -0.3227   61.2565   71.1998 H           1 HUX       0.1779
     24 H3          4.4140   57.8310   72.3538 H           1 HUX       0.0596
     25 H4          6.0952   61.9785   70.7646 H           1 HUX       0.0470
     26 H5          5.7698   62.5733   72.3897 H           1 HUX       0.0470
     27 H6          5.9841   64.5729   71.1188 H           1 HUX       0.0401
     28 H7          5.9018   63.9458   68.8537 H           1 HUX       0.0247
     29 H8          1.8881   63.1708   68.9807 H           1 HUX       0.0431
     30 H9          2.1364   64.8946   69.2049 H           1 HUX       0.0431
     31 H10         3.5154   62.5091   65.5563 H           1 HUX       0.0251
     32 H11         2.5419   62.1255   66.9902 H           1 HUX       0.0251
     33 H12         4.2824   61.7681   66.9719 H           1 HUX       0.0251
     34 H13         1.7609   64.0996   71.4097 H           1 HUX       0.0444
     35 H14         3.7381   65.5861   71.1893 H           1 HUX       0.0305
     36 H15         3.8871   64.4517   72.5489 H           1 HUX       0.0305
     37 H16        -0.1500   59.3661   71.7219 H           1 HUX       0.0636
     38 H17         0.2825   57.0678   72.2160 H           1 HUX       0.0590
     39 H18         3.1354   64.6063   66.8595 H           1 HUX       0.0408
     40 H19         4.8270   64.1418   66.7887 H           1 HUX       0.0408
@<TRIPOS>BOND
     1     1     5  ar
     2     1     6  ar
     3     6    15  ar
     4     6     7   1
     5     7     8   1
     6     8    14   1
     7     8     9   1
     8     9    10   2
     9    10    20   1
    10    10    11   1
    11    11    13   1
    12    13    15   1
    13    13    14   1
    14    15    16  ar
    15    16     2   1
    16    16    17  ar
    17    17    18  ar
    18    17     5  ar
    19     5     4  ar
    20     4     3  ar
    21     3    19  ar
    22    18    19  ar
    23    20    12   1
    24     3    21   1
    25     2    22   1
    26     2    23   1
    27     4    24   1
    28     7    25   1
    29     7    26   1
    30     8    27   1
    31     9    28   1
    32    11    29   1
    33    11    30   1
    34    12    31   1
    35    12    32   1
    36    12    33   1
    37    13    34   1
    38    14    35   1
    39    14    36   1
    40    18    37   1
    41    19    38   1
    42    20    39   1
    43    20    40   1
@<TRIPOS>SUBSTRUCTURE
     1  HUX      3

