@<TRIPOS>MOLECULE
1e66_ligand_016
    40    43
SMALL
GAST_HUCK
****
This file was generated by PARSER (from files_GN.cpp)

@<TRIPOS>ATOM
      1 N1          3.1045   69.8048   65.7112 N.ar        1 HUX      -0.3279
      2 N2          2.6705   65.7183   65.9193 N.pl3       1 HUX      -0.3283
      3 C1          5.2367   68.9090   62.8742 C.ar        1 HUX       0.0385
      4 C2          4.5483   69.6749   63.8256 C.ar        1 HUX      -0.0382
      5 C3          3.7608   69.0448   64.8078 C.ar        1 HUX       0.0183
      6 C4          2.3204   69.2970   66.6971 C.ar        1 HUX       0.0124
      7 C5          1.6981   70.2701   67.6337 C.3         1 HUX      -0.0021
      8 C6          0.6666   69.6328   68.6124 C.3         1 HUX      -0.0218
      9 C7         -0.6241   69.4139   67.9584 C.2         1 HUX      -0.1032
     10 C8         -1.0034   68.2487   67.3842 C.2         1 HUX      -0.0790
     11 C9         -0.1356   67.0643   67.4448 C.3         1 HUX      -0.0183
     12 C10        -2.5538   69.0432   65.5518 C.3         1 HUX      -0.0568
     13 C11         1.3260   67.3293   67.9357 C.3         1 HUX       0.0005
     14 C12         1.2523   68.2977   69.1503 C.3         1 HUX      -0.0333
     15 C13         2.1800   67.8879   66.8261 C.ar        1 HUX       0.0103
     16 C14         2.8314   67.0594   65.8711 C.ar        1 HUX       0.0669
     17 C15         3.6484   67.6264   64.8557 C.ar        1 HUX       0.0195
     18 C16         4.3616   66.8691   63.8954 C.ar        1 HUX      -0.0525
     19 C17         5.1489   67.5038   62.9179 C.ar        1 HUX      -0.0494
     20 C18        -2.3327   68.1178   66.7785 C.3         1 HUX      -0.0310
     21 CL1         6.1483   69.6843   61.6814 Cl          1 HUX      -0.0699
     22 H1          2.1115   65.3139   66.5942 H           1 HUX       0.1779
     23 H2          3.0951   65.1439   65.2653 H           1 HUX       0.1779
     24 H3          4.6130   70.6943   63.8075 H           1 HUX       0.0596
     25 H4          1.2214   71.0716   67.0692 H           1 HUX       0.0470
     26 H5          2.5036   70.7241   68.2180 H           1 HUX       0.0470
     27 H6          0.5050   70.3174   69.4518 H           1 HUX       0.0401
     28 H7         -1.2219   70.2040   67.8967 H           1 HUX       0.0247
     29 H8         -0.0980   66.5829   66.4617 H           1 HUX       0.0431
     30 H9         -0.6076   66.3552   68.1329 H           1 HUX       0.0431
     31 H10        -3.5709   68.9342   65.1779 H           1 HUX       0.0251
     32 H11        -1.8480   68.7806   64.7668 H           1 HUX       0.0251
     33 H12        -2.4191   70.0956   65.8141 H           1 HUX       0.0251
     34 H13         1.7626   66.3963   68.2989 H           1 HUX       0.0444
     35 H14         2.2453   68.4556   69.5801 H           1 HUX       0.0305
     36 H15         0.6094   67.8840   69.9325 H           1 HUX       0.0305
     37 H16         4.3257   65.8474   63.8983 H           1 HUX       0.0636
     38 H17         5.6593   66.9285   62.2414 H           1 HUX       0.0590
     39 H18        -3.0832   68.3550   67.5368 H           1 HUX       0.0408
     40 H19        -2.5166   67.0890   66.4488 H           1 HUX       0.0408
@<TRIPOS>BOND
     1     1     5  ar
     2     1     6  ar
     3     6    15  ar
     4     6     7   1
     5     7     8   1
     6     8    14   1
     7     8     9   1
     8     9    10   2
     9    10    20   1
    10    10    11   1
    11    11    13   1
    12    13    15   1
    13    13    14   1
    14    15    16  ar
    15    16     2   1
    16    16    17  ar
    17    17    18  ar
    18    17     5  ar
    19     5     4  ar
    20     4     3  ar
    21     3    19  ar
    22    18    19  ar
    23    20    12   1
    24     3    21   1
    25     2    22   1
    26     2    23   1
    27     4    24   1
    28     7    25   1
    29     7    26   1
    30     8    27   1
    31     9    28   1
    32    11    29   1
    33    11    30   1
    34    12    31   1
    35    12    32   1
    36    12    33   1
    37    13    34   1
    38    14    35   1
    39    14    36   1
    40    18    37   1
    41    19    38   1
    42    20    39   1
    43    20    40   1
@<TRIPOS>SUBSTRUCTURE
     1  HUX      3

