@<TRIPOS>MOLECULE
1e66_ligand_038
    40    43
SMALL
GAST_HUCK
****
This file was generated by PARSER (from files_GN.cpp)

@<TRIPOS>ATOM
      1 N1          3.0757   62.8253   70.5704 N.ar        1 HUX      -0.3279
      2 N2          2.5558   62.9892   74.6602 N.pl3       1 HUX      -0.3283
      3 C1          6.1108   61.0306   71.5591 C.ar        1 HUX       0.0385
      4 C2          5.1321   61.6451   70.7592 C.ar        1 HUX      -0.0382
      5 C3          4.0104   62.2487   71.3582 C.ar        1 HUX       0.0183
      6 C4          1.9752   63.4451   71.0612 C.ar        1 HUX       0.0124
      7 C5          1.0005   63.9669   70.0700 C.3         1 HUX      -0.0021
      8 C6         -0.3419   64.4307   70.7099 C.3         1 HUX      -0.0218
      9 C7         -1.1820   63.2738   71.0555 C.2         1 HUX      -0.1032
     10 C8         -1.2742   62.7462   72.2992 C.2         1 HUX      -0.0790
     11 C9         -0.5207   63.3247   73.4240 C.3         1 HUX      -0.0183
     12 C10        -1.4707   60.2980   72.8232 C.3         1 HUX      -0.0568
     13 C11         0.6042   64.3231   73.0042 C.3         1 HUX       0.0005
     14 C12        -0.0065   65.2969   71.9561 C.3         1 HUX      -0.0333
     15 C13         1.7978   63.5778   72.4675 C.ar        1 HUX       0.0103
     16 C14         2.7299   62.9305   73.3223 C.ar        1 HUX       0.0669
     17 C15         3.8443   62.2439   72.7716 C.ar        1 HUX       0.0195
     18 C16         4.8088   61.5645   73.5480 C.ar        1 HUX      -0.0525
     19 C17         5.9386   60.9754   72.9542 C.ar        1 HUX      -0.0494
     20 C18        -2.1984   61.6448   72.5862 C.3         1 HUX      -0.0310
     21 CL1         7.4857   60.3560   70.8438 Cl          1 HUX      -0.0699
     22 H1          1.8000   63.4670   75.0331 H           1 HUX       0.1779
     23 H2          3.1773   62.5492   75.2580 H           1 HUX       0.1779
     24 H3          5.2413   61.6656   69.7412 H           1 HUX       0.0596
     25 H4          0.7977   63.1929   69.3242 H           1 HUX       0.0470
     26 H5          1.4645   64.8110   69.5511 H           1 HUX       0.0470
     27 H6         -0.8813   65.0538   69.9914 H           1 HUX       0.0401
     28 H7         -1.6776   62.8411   70.3069 H           1 HUX       0.0247
     29 H8         -1.2285   63.8500   74.0733 H           1 HUX       0.0431
     30 H9         -0.0788   62.5279   74.0281 H           1 HUX       0.0431
     31 H10        -2.2097   59.5159   73.0168 H           1 HUX       0.0251
     32 H11        -0.7975   60.3542   73.6851 H           1 HUX       0.0251
     33 H12        -0.8898   60.0235   71.9362 H           1 HUX       0.0251
     34 H13         0.9045   64.9192   73.8719 H           1 HUX       0.0444
     35 H14        -0.9086   65.7763   72.3484 H           1 HUX       0.0305
     36 H15         0.7104   66.0865   71.7056 H           1 HUX       0.0305
     37 H16         4.7001   61.4873   74.5601 H           1 HUX       0.0636
     38 H17         6.6365   60.5214   73.5455 H           1 HUX       0.0590
     39 H18        -2.9170   61.5032   71.7732 H           1 HUX       0.0408
     40 H19        -2.7913   61.8869   73.4768 H           1 HUX       0.0408
@<TRIPOS>BOND
     1     1     5  ar
     2     1     6  ar
     3     6    15  ar
     4     6     7   1
     5     7     8   1
     6     8    14   1
     7     8     9   1
     8     9    10   2
     9    10    20   1
    10    10    11   1
    11    11    13   1
    12    13    15   1
    13    13    14   1
    14    15    16  ar
    15    16     2   1
    16    16    17  ar
    17    17    18  ar
    18    17     5  ar
    19     5     4  ar
    20     4     3  ar
    21     3    19  ar
    22    18    19  ar
    23    20    12   1
    24     3    21   1
    25     2    22   1
    26     2    23   1
    27     4    24   1
    28     7    25   1
    29     7    26   1
    30     8    27   1
    31     9    28   1
    32    11    29   1
    33    11    30   1
    34    12    31   1
    35    12    32   1
    36    12    33   1
    37    13    34   1
    38    14    35   1
    39    14    36   1
    40    18    37   1
    41    19    38   1
    42    20    39   1
    43    20    40   1
@<TRIPOS>SUBSTRUCTURE
     1  HUX      3

