@<TRIPOS>MOLECULE
1e66_ligand_026
    40    43
SMALL
GAST_HUCK
****
This file was generated by PARSER (from files_GN.cpp)

@<TRIPOS>ATOM
      1 N1          3.4555   60.0372   69.7802 N.ar        1 HUX      -0.3279
      2 N2          4.5444   61.7863   73.3451 N.pl3       1 HUX      -0.3283
      3 C1          2.8263   57.1779   71.9920 C.ar        1 HUX       0.0385
      4 C2          2.9148   57.9626   70.8265 C.ar        1 HUX      -0.0382
      5 C3          3.3723   59.2930   70.9087 C.ar        1 HUX       0.0183
      6 C4          3.8860   61.3233   69.7574 C.ar        1 HUX       0.0124
      7 C5          3.9456   62.0005   68.4329 C.3         1 HUX      -0.0021
      8 C6          4.2890   63.5217   68.5071 C.3         1 HUX      -0.0218
      9 C7          3.0990   64.3097   68.8430 C.2         1 HUX      -0.1032
     10 C8          2.7600   64.6744   70.1004 C.2         1 HUX      -0.0790
     11 C9          3.6487   64.3758   71.2312 C.3         1 HUX      -0.0183
     12 C10         1.7363   66.9570   69.8771 C.3         1 HUX      -0.0568
     13 C11         4.8058   63.3690   70.9348 C.3         1 HUX       0.0005
     14 C12         5.4159   63.7353   69.5552 C.3         1 HUX      -0.0333
     15 C13         4.3061   61.9478   70.9646 C.ar        1 HUX       0.0103
     16 C14         4.2046   61.2051   72.1744 C.ar        1 HUX       0.0669
     17 C15         3.7451   59.8615   72.1576 C.ar        1 HUX       0.0195
     18 C16         3.6414   59.0534   73.3181 C.ar        1 HUX      -0.0525
     19 C17         3.1849   57.7267   73.2360 C.ar        1 HUX      -0.0494
     20 C18         1.5653   65.4912   70.3404 C.3         1 HUX      -0.0310
     21 CL1         2.2950   55.5756   71.9101 Cl          1 HUX      -0.0699
     22 H1          4.8532   62.7019   73.3620 H           1 HUX       0.1779
     23 H2          4.4716   61.2994   74.1788 H           1 HUX       0.1779
     24 H3          2.6475   57.5645   69.9203 H           1 HUX       0.0596
     25 H4          2.9936   61.8635   67.9110 H           1 HUX       0.0470
     26 H5          4.7136   61.4955   67.8415 H           1 HUX       0.0470
     27 H6          4.6578   63.8511   67.5303 H           1 HUX       0.0401
     28 H7          2.5023   64.5602   68.0895 H           1 HUX       0.0247
     29 H8          3.0625   64.0081   72.0781 H           1 HUX       0.0431
     30 H9          4.0984   65.3242   71.5310 H           1 HUX       0.0431
     31 H10         0.8317   67.5245   70.1057 H           1 HUX       0.0251
     32 H11         1.9127   67.0056   68.8012 H           1 HUX       0.0251
     33 H12         2.5758   67.4238   70.3961 H           1 HUX       0.0251
     34 H13         5.6025   63.4992   71.6736 H           1 HUX       0.0444
     35 H14         6.2721   63.0946   69.3460 H           1 HUX       0.0305
     36 H15         5.7675   64.7707   69.5430 H           1 HUX       0.0305
     37 H16         3.8986   59.4139   74.2390 H           1 HUX       0.0636
     38 H17         3.1204   57.1623   74.0873 H           1 HUX       0.0590
     39 H18         1.3165   65.5118   71.4058 H           1 HUX       0.0408
     40 H19         0.7049   65.0471   69.8302 H           1 HUX       0.0408
@<TRIPOS>BOND
     1     1     5  ar
     2     1     6  ar
     3     6    15  ar
     4     6     7   1
     5     7     8   1
     6     8    14   1
     7     8     9   1
     8     9    10   2
     9    10    20   1
    10    10    11   1
    11    11    13   1
    12    13    15   1
    13    13    14   1
    14    15    16  ar
    15    16     2   1
    16    16    17  ar
    17    17    18  ar
    18    17     5  ar
    19     5     4  ar
    20     4     3  ar
    21     3    19  ar
    22    18    19  ar
    23    20    12   1
    24     3    21   1
    25     2    22   1
    26     2    23   1
    27     4    24   1
    28     7    25   1
    29     7    26   1
    30     8    27   1
    31     9    28   1
    32    11    29   1
    33    11    30   1
    34    12    31   1
    35    12    32   1
    36    12    33   1
    37    13    34   1
    38    14    35   1
    39    14    36   1
    40    18    37   1
    41    19    38   1
    42    20    39   1
    43    20    40   1
@<TRIPOS>SUBSTRUCTURE
     1  HUX      3

