@<TRIPOS>MOLECULE
1e66_ligand_017
    40    43
SMALL
GAST_HUCK
****
This file was generated by PARSER (from files_GN.cpp)

@<TRIPOS>ATOM
      1 N1          4.1604   60.4029   74.4358 N.ar        1 HUX      -0.3279
      2 N2          1.7444   63.6734   73.8018 N.pl3       1 HUX      -0.3283
      3 C1          2.0068   60.0388   77.3852 C.ar        1 HUX       0.0385
      4 C2          3.0304   59.7988   76.4447 C.ar        1 HUX      -0.0382
      5 C3          3.1861   60.6571   75.3379 C.ar        1 HUX       0.0183
      6 C4          4.3937   61.1689   73.3392 C.ar        1 HUX       0.0124
      7 C5          5.5183   60.7756   72.4516 C.3         1 HUX      -0.0021
      8 C6          5.6416   61.6012   71.1298 C.3         1 HUX      -0.0218
      9 C7          4.7502   61.0893   70.0933 C.2         1 HUX      -0.1032
     10 C8          3.4541   61.4566   69.9624 C.2         1 HUX      -0.0790
     11 C9          2.9341   62.6260   70.7061 C.3         1 HUX      -0.0183
     12 C10         2.6273   59.2890   68.9037 C.3         1 HUX      -0.0568
     13 C11         3.8367   63.1466   71.8668 C.3         1 HUX       0.0005
     14 C12         5.3232   63.0945   71.4069 C.3         1 HUX      -0.0333
     15 C13         3.6010   62.3244   73.1046 C.ar        1 HUX       0.0103
     16 C14         2.5486   62.6094   74.0226 C.ar        1 HUX       0.0669
     17 C15         2.3344   61.7809   75.1562 C.ar        1 HUX       0.0195
     18 C16         1.3184   62.0075   76.1178 C.ar        1 HUX      -0.0525
     19 C17         1.1550   61.1454   77.2178 C.ar        1 HUX      -0.0494
     20 C18         2.5828   60.8323   68.9583 C.3         1 HUX      -0.0310
     21 CL1         1.7948   58.9989   78.7037 Cl          1 HUX      -0.0699
     22 H1          1.8665   64.2220   73.0134 H           1 HUX       0.1779
     23 H2          1.0331   63.8958   74.4194 H           1 HUX       0.1779
     24 H3          3.6564   58.9993   76.5679 H           1 HUX       0.0596
     25 H4          5.4262   59.7129   72.2121 H           1 HUX       0.0470
     26 H5          6.4382   60.8917   73.0374 H           1 HUX       0.0470
     27 H6          6.6723   61.5315   70.7810 H           1 HUX       0.0401
     28 H7          5.1102   60.3697   69.5182 H           1 HUX       0.0247
     29 H8          2.7935   63.4361   69.9907 H           1 HUX       0.0431
     30 H9          1.9480   62.3799   71.1046 H           1 HUX       0.0431
     31 H10         1.8458   58.9298   68.2509 H           1 HUX       0.0251
     32 H11         2.4840   58.8542   69.8913 H           1 HUX       0.0251
     33 H12         3.5754   58.9326   68.5000 H           1 HUX       0.0251
     34 H13         3.6016   64.1942   72.0584 H           1 HUX       0.0444
     35 H14         5.4644   63.6929   70.5007 H           1 HUX       0.0305
     36 H15         5.9891   63.5073   72.1776 H           1 HUX       0.0305
     37 H16         0.6809   62.8017   76.0352 H           1 HUX       0.0636
     38 H17         0.4099   61.3283   77.8969 H           1 HUX       0.0590
     39 H18         2.8546   61.2292   67.9803 H           1 HUX       0.0408
     40 H19         1.5495   61.1116   69.1366 H           1 HUX       0.0408
@<TRIPOS>BOND
     1     1     5  ar
     2     1     6  ar
     3     6    15  ar
     4     6     7   1
     5     7     8   1
     6     8    14   1
     7     8     9   1
     8     9    10   2
     9    10    20   1
    10    10    11   1
    11    11    13   1
    12    13    15   1
    13    13    14   1
    14    15    16  ar
    15    16     2   1
    16    16    17  ar
    17    17    18  ar
    18    17     5  ar
    19     5     4  ar
    20     4     3  ar
    21     3    19  ar
    22    18    19  ar
    23    20    12   1
    24     3    21   1
    25     2    22   1
    26     2    23   1
    27     4    24   1
    28     7    25   1
    29     7    26   1
    30     8    27   1
    31     9    28   1
    32    11    29   1
    33    11    30   1
    34    12    31   1
    35    12    32   1
    36    12    33   1
    37    13    34   1
    38    14    35   1
    39    14    36   1
    40    18    37   1
    41    19    38   1
    42    20    39   1
    43    20    40   1
@<TRIPOS>SUBSTRUCTURE
     1  HUX      3

