@<TRIPOS>MOLECULE
1e66_ligand_013
    40    43
SMALL
GAST_HUCK
****
This file was generated by PARSER (from files_GN.cpp)

@<TRIPOS>ATOM
      1 N1         -0.5512   68.4629   64.7434 N.ar        1 HUX      -0.3279
      2 N2          1.9927   69.9044   61.8296 N.pl3       1 HUX      -0.3283
      3 C1         -3.0694   70.0304   62.6104 C.ar        1 HUX       0.0385
      4 C2         -2.4881   69.2919   63.6552 C.ar        1 HUX      -0.0382
      5 C3         -1.0899   69.1345   63.7036 C.ar        1 HUX       0.0183
      6 C4          0.7782   68.2575   64.8872 C.ar        1 HUX       0.0124
      7 C5          1.2074   67.5002   66.0905 C.3         1 HUX      -0.0021
      8 C6          2.7176   67.1226   66.0864 C.3         1 HUX      -0.0218
      9 C7          2.9694   65.9393   65.2611 C.2         1 HUX      -0.1032
     10 C8          3.3666   65.9908   63.9686 C.2         1 HUX      -0.0790
     11 C9          3.6221   67.2789   63.3025 C.3         1 HUX      -0.0183
     12 C10         4.9700   64.0841   63.6155 C.3         1 HUX      -0.0568
     13 C11         3.1640   68.5471   64.0973 C.3         1 HUX       0.0005
     14 C12         3.5437   68.3451   65.5919 C.3         1 HUX      -0.0333
     15 C13         1.6866   68.7801   63.9237 C.ar        1 HUX       0.0103
     16 C14         1.1531   69.4672   62.7971 C.ar        1 HUX       0.0669
     17 C15        -0.2495   69.6729   62.6906 C.ar        1 HUX       0.0195
     18 C16        -0.8591   70.3957   61.6381 C.ar        1 HUX      -0.0525
     19 C17        -2.2524   70.5942   61.6125 C.ar        1 HUX      -0.0494
     20 C18         3.6286   64.7496   63.2379 C.3         1 HUX      -0.0310
     21 CL1        -4.7315   70.3337   62.6300 Cl          1 HUX      -0.0699
     22 H1          2.9439   69.7379   61.9088 H           1 HUX       0.1779
     23 H2          1.6728   70.3802   61.0458 H           1 HUX       0.1779
     24 H3         -3.0751   68.9119   64.4034 H           1 HUX       0.0596
     25 H4          0.5991   66.5961   66.1915 H           1 HUX       0.0470
     26 H5          1.0058   68.1252   66.9652 H           1 HUX       0.0470
     27 H6          3.0078   66.8883   67.1117 H           1 HUX       0.0401
     28 H7          2.7997   65.0524   65.6823 H           1 HUX       0.0247
     29 H8          3.1441   67.2794   62.3181 H           1 HUX       0.0431
     30 H9          4.7005   67.3497   63.1369 H           1 HUX       0.0431
     31 H10         5.1113   63.1862   63.0084 H           1 HUX       0.0251
     32 H11         4.9815   63.7981   64.6687 H           1 HUX       0.0251
     33 H12         5.7974   64.7680   63.4200 H           1 HUX       0.0251
     34 H13         3.7188   69.4221   63.7439 H           1 HUX       0.0444
     35 H14         3.3075   69.2390   66.1763 H           1 HUX       0.0305
     36 H15         4.6169   68.1544   65.6912 H           1 HUX       0.0305
     37 H16        -0.2963   70.8101   60.8924 H           1 HUX       0.0636
     38 H17        -2.6625   71.1774   60.8816 H           1 HUX       0.0590
     39 H18         3.6496   64.9318   62.1601 H           1 HUX       0.0408
     40 H19         2.8170   64.0417   63.4258 H           1 HUX       0.0408
@<TRIPOS>BOND
     1     1     5  ar
     2     1     6  ar
     3     6    15  ar
     4     6     7   1
     5     7     8   1
     6     8    14   1
     7     8     9   1
     8     9    10   2
     9    10    20   1
    10    10    11   1
    11    11    13   1
    12    13    15   1
    13    13    14   1
    14    15    16  ar
    15    16     2   1
    16    16    17  ar
    17    17    18  ar
    18    17     5  ar
    19     5     4  ar
    20     4     3  ar
    21     3    19  ar
    22    18    19  ar
    23    20    12   1
    24     3    21   1
    25     2    22   1
    26     2    23   1
    27     4    24   1
    28     7    25   1
    29     7    26   1
    30     8    27   1
    31     9    28   1
    32    11    29   1
    33    11    30   1
    34    12    31   1
    35    12    32   1
    36    12    33   1
    37    13    34   1
    38    14    35   1
    39    14    36   1
    40    18    37   1
    41    19    38   1
    42    20    39   1
    43    20    40   1
@<TRIPOS>SUBSTRUCTURE
     1  HUX      3

