@<TRIPOS>MOLECULE
1e66_ligand_054
    40    43
SMALL
GAST_HUCK
****
This file was generated by PARSER (from files_GN.cpp)

@<TRIPOS>ATOM
      1 N1          3.3084   68.0905   68.2620 N.ar        1 HUX      -0.3279
      2 N2          0.0274   70.5292   68.6414 N.pl3       1 HUX      -0.3283
      3 C1          5.0799   71.2836   68.4581 C.ar        1 HUX       0.0385
      4 C2          4.8423   69.9082   68.3176 C.ar        1 HUX      -0.0382
      5 C3          3.5220   69.4173   68.3609 C.ar        1 HUX       0.0183
      6 C4          2.0864   67.5124   68.3044 C.ar        1 HUX       0.0124
      7 C5          2.0469   66.0349   68.1947 C.3         1 HUX      -0.0021
      8 C6          0.6333   65.4142   68.4269 C.3         1 HUX      -0.0218
      9 C7          0.3542   65.2863   69.8639 C.2         1 HUX      -0.1032
     10 C8         -0.3369   66.2043   70.5778 C.2         1 HUX      -0.0790
     11 C9         -0.9077   67.3760   69.8972 C.3         1 HUX      -0.0183
     12 C10        -0.3174   64.7720   72.7593 C.3         1 HUX      -0.0568
     13 C11        -0.4272   67.6603   68.4387 C.3         1 HUX       0.0005
     14 C12        -0.4233   66.2974   67.6963 C.3         1 HUX      -0.0333
     15 C13         0.9252   68.3184   68.4107 C.ar        1 HUX       0.0103
     16 C14         1.1040   69.7250   68.5204 C.ar        1 HUX       0.0669
     17 C15         2.4108   70.2883   68.5081 C.ar        1 HUX       0.0195
     18 C16         2.6792   71.6698   68.6314 C.ar        1 HUX      -0.0525
     19 C17         3.9920   72.1638   68.6236 C.ar        1 HUX      -0.0494
     20 C18        -0.5694   66.1130   72.0263 C.3         1 HUX      -0.0310
     21 CL1         6.6564   71.8918   68.4041 Cl          1 HUX      -0.0699
     22 H1         -0.8694   70.1619   68.6381 H           1 HUX       0.1779
     23 H2          0.1322   71.4888   68.7274 H           1 HUX       0.1779
     24 H3          5.6302   69.2660   68.1744 H           1 HUX       0.0596
     25 H4          2.7603   65.6031   68.9032 H           1 HUX       0.0470
     26 H5          2.3809   65.7768   67.1859 H           1 HUX       0.0470
     27 H6          0.6096   64.4137   67.9833 H           1 HUX       0.0401
     28 H7          0.7953   64.5270   70.3289 H           1 HUX       0.0247
     29 H8         -0.6968   68.2553   70.4964 H           1 HUX       0.0431
     30 H9         -1.9901   67.2438   69.8821 H           1 HUX       0.0431
     31 H10        -0.6272   64.8503   73.8034 H           1 HUX       0.0251
     32 H11         0.7431   64.5123   72.7356 H           1 HUX       0.0251
     33 H12        -0.8970   63.9766   72.2859 H           1 HUX       0.0251
     34 H13        -1.1614   68.2905   67.9352 H           1 HUX       0.0444
     35 H14        -1.4177   65.8318   67.7326 H           1 HUX       0.0305
     36 H15        -0.1643   66.4350   66.6385 H           1 HUX       0.0305
     37 H16         1.9164   72.3407   68.7162 H           1 HUX       0.0636
     38 H17         4.1498   73.1679   68.7035 H           1 HUX       0.0590
     39 H18        -1.6083   66.3798   72.2247 H           1 HUX       0.0408
     40 H19         0.0511   66.8707   72.5103 H           1 HUX       0.0408
@<TRIPOS>BOND
     1     1     5  ar
     2     1     6  ar
     3     6    15  ar
     4     6     7   1
     5     7     8   1
     6     8    14   1
     7     8     9   1
     8     9    10   2
     9    10    20   1
    10    10    11   1
    11    11    13   1
    12    13    15   1
    13    13    14   1
    14    15    16  ar
    15    16     2   1
    16    16    17  ar
    17    17    18  ar
    18    17     5  ar
    19     5     4  ar
    20     4     3  ar
    21     3    19  ar
    22    18    19  ar
    23    20    12   1
    24     3    21   1
    25     2    22   1
    26     2    23   1
    27     4    24   1
    28     7    25   1
    29     7    26   1
    30     8    27   1
    31     9    28   1
    32    11    29   1
    33    11    30   1
    34    12    31   1
    35    12    32   1
    36    12    33   1
    37    13    34   1
    38    14    35   1
    39    14    36   1
    40    18    37   1
    41    19    38   1
    42    20    39   1
    43    20    40   1
@<TRIPOS>SUBSTRUCTURE
     1  HUX      3

