@<TRIPOS>MOLECULE
1e66_ligand_044
    40    43
SMALL
GAST_HUCK
****
This file was generated by PARSER (from files_GN.cpp)

@<TRIPOS>ATOM
      1 N1         -0.9477   67.3047   67.1784 N.ar        1 HUX      -0.3279
      2 N2          2.7744   68.7141   68.2286 N.pl3       1 HUX      -0.3283
      3 C1         -0.2249   69.1804   64.1157 C.ar        1 HUX       0.0385
      4 C2         -0.8982   68.3852   65.0595 C.ar        1 HUX      -0.0382
      5 C3         -0.2898   68.0888   66.2953 C.ar        1 HUX       0.0183
      6 C4         -0.4513   66.9609   68.3898 C.ar        1 HUX       0.0124
      7 C5         -1.3001   66.0932   69.2459 C.3         1 HUX      -0.0021
      8 C6         -0.5663   65.5297   70.5037 C.3         1 HUX      -0.0218
      9 C7          0.2824   64.3924   70.1398 C.2         1 HUX      -0.1032
     10 C8          1.6016   64.4984   69.8590 C.2         1 HUX      -0.0790
     11 C9          2.3005   65.7882   70.0092 C.3         1 HUX      -0.0183
     12 C10         3.1260   62.6745   70.6394 C.3         1 HUX      -0.0568
     13 C11         1.3733   67.0402   70.1443 C.3         1 HUX       0.0005
     14 C12         0.2517   66.6753   71.1550 C.3         1 HUX      -0.0333
     15 C13         0.8205   67.4482   68.8016 C.ar        1 HUX       0.0103
     16 C14         1.5490   68.2616   67.8880 C.ar        1 HUX       0.0669
     17 C15         0.9981   68.5939   66.6198 C.ar        1 HUX       0.0195
     18 C16         1.6563   69.4005   65.6564 C.ar        1 HUX      -0.0525
     19 C17         1.0538   69.6843   64.4175 C.ar        1 HUX      -0.0494
     20 C18         2.3712   63.3189   69.4560 C.3         1 HUX      -0.0310
     21 CL1        -0.9464   69.5253   62.6241 Cl          1 HUX      -0.0699
     22 H1          3.1546   68.4896   69.0891 H           1 HUX       0.1779
     23 H2          3.2895   69.2558   67.6133 H           1 HUX       0.1779
     24 H3         -1.8268   68.0146   64.8431 H           1 HUX       0.0596
     25 H4         -1.6884   65.2637   68.6461 H           1 HUX       0.0470
     26 H5         -2.1563   66.6915   69.5701 H           1 HUX       0.0470
     27 H6         -1.3022   65.1865   71.2386 H           1 HUX       0.0401
     28 H7         -0.1734   63.5143   70.0247 H           1 HUX       0.0247
     29 H8          2.9296   65.7292   70.9018 H           1 HUX       0.0431
     30 H9          2.9648   65.9403   69.1581 H           1 HUX       0.0431
     31 H10         3.6751   61.7996   70.2900 H           1 HUX       0.0251
     32 H11         2.4223   62.3587   71.4107 H           1 HUX       0.0251
     33 H12         3.8380   63.3778   71.0734 H           1 HUX       0.0251
     34 H13         1.9378   67.8720   70.5761 H           1 HUX       0.0444
     35 H14         0.6698   66.3471   72.1107 H           1 HUX       0.0305
     36 H15        -0.3900   67.5342   71.3492 H           1 HUX       0.0305
     37 H16         2.5786   69.7989   65.8434 H           1 HUX       0.0636
     38 H17         1.5454   70.2697   63.7400 H           1 HUX       0.0590
     39 H18         3.0919   63.5967   68.6814 H           1 HUX       0.0408
     40 H19         1.7249   62.5560   69.0077 H           1 HUX       0.0408
@<TRIPOS>BOND
     1     1     5  ar
     2     1     6  ar
     3     6    15  ar
     4     6     7   1
     5     7     8   1
     6     8    14   1
     7     8     9   1
     8     9    10   2
     9    10    20   1
    10    10    11   1
    11    11    13   1
    12    13    15   1
    13    13    14   1
    14    15    16  ar
    15    16     2   1
    16    16    17  ar
    17    17    18  ar
    18    17     5  ar
    19     5     4  ar
    20     4     3  ar
    21     3    19  ar
    22    18    19  ar
    23    20    12   1
    24     3    21   1
    25     2    22   1
    26     2    23   1
    27     4    24   1
    28     7    25   1
    29     7    26   1
    30     8    27   1
    31     9    28   1
    32    11    29   1
    33    11    30   1
    34    12    31   1
    35    12    32   1
    36    12    33   1
    37    13    34   1
    38    14    35   1
    39    14    36   1
    40    18    37   1
    41    19    38   1
    42    20    39   1
    43    20    40   1
@<TRIPOS>SUBSTRUCTURE
     1  HUX      3

