@<TRIPOS>MOLECULE
1e66_ligand_045
    40    43
SMALL
GAST_HUCK
****
This file was generated by PARSER (from files_GN.cpp)

@<TRIPOS>ATOM
      1 N1          3.6458   62.3692   73.4515 N.ar        1 HUX      -0.3279
      2 N2          0.9811   61.3327   70.4891 N.pl3       1 HUX      -0.3283
      3 C1          6.0363   60.9974   71.0352 C.ar        1 HUX       0.0385
      4 C2          5.5175   61.5917   72.2028 C.ar        1 HUX      -0.0382
      5 C3          4.1334   61.8044   72.3217 C.ar        1 HUX       0.0183
      6 C4          2.3281   62.6033   73.6643 C.ar        1 HUX       0.0124
      7 C5          1.9507   63.2458   74.9498 C.3         1 HUX      -0.0021
      8 C6          0.4566   63.6979   75.0148 C.3         1 HUX      -0.0218
      9 C7          0.2689   64.9593   74.2886 C.2         1 HUX      -0.1032
     10 C8         -0.1104   65.0419   72.9929 C.2         1 HUX      -0.0790
     11 C9         -0.4966   63.8264   72.2523 C.3         1 HUX      -0.0183
     12 C10         0.4432   66.5244   70.9940 C.3         1 HUX      -0.0568
     13 C11        -0.0885   62.4755   72.9240 C.3         1 HUX       0.0005
     14 C12        -0.4310   62.5601   74.4361 C.3         1 HUX      -0.0333
     15 C13         1.3755   62.2111   72.6833 C.ar        1 HUX       0.0103
     16 C14         1.8512   61.6513   71.4695 C.ar        1 HUX       0.0669
     17 C15         3.2411   61.4353   71.2765 C.ar        1 HUX       0.0195
     18 C16         3.7903   60.8747   70.0961 C.ar        1 HUX      -0.0525
     19 C17         5.1743   60.6716   69.9758 C.ar        1 HUX      -0.0494
     20 C18        -0.2889   66.3556   72.3493 C.3         1 HUX      -0.0310
     21 CL1         7.6806   60.6286   70.9293 Cl          1 HUX      -0.0699
     22 H1          0.0334   61.4989   70.6025 H           1 HUX       0.1779
     23 H2          1.2979   60.9593   69.6526 H           1 HUX       0.1779
     24 H3          6.1533   61.8590   72.9605 H           1 HUX       0.0596
     25 H4          2.5953   64.1115   75.1272 H           1 HUX       0.0470
     26 H5          2.1389   62.5280   75.7516 H           1 HUX       0.0470
     27 H6          0.1765   63.8540   76.0643 H           1 HUX       0.0401
     28 H7          0.4981   65.7917   74.7833 H           1 HUX       0.0247
     29 H8         -0.0956   63.8673   71.2315 H           1 HUX       0.0431
     30 H9         -1.5836   63.8294   72.1587 H           1 HUX       0.0431
     31 H10         0.3752   67.5683   70.6699 H           1 HUX       0.0251
     32 H11        -0.0266   65.9087   70.2193 H           1 HUX       0.0251
     33 H12         1.5014   66.2511   71.0790 H           1 HUX       0.0251
     34 H13        -0.6834   61.6586   72.5070 H           1 HUX       0.0444
     35 H14        -1.4917   62.7903   74.5831 H           1 HUX       0.0305
     36 H15        -0.2228   61.6118   74.9367 H           1 HUX       0.0305
     37 H16         3.1975   60.5978   69.3107 H           1 HUX       0.0636
     38 H17         5.5449   60.2691   69.1108 H           1 HUX       0.0590
     39 H18         0.0532   67.1640   73.0020 H           1 HUX       0.0408
     40 H19        -1.3577   66.5152   72.1862 H           1 HUX       0.0408
@<TRIPOS>BOND
     1     1     5  ar
     2     1     6  ar
     3     6    15  ar
     4     6     7   1
     5     7     8   1
     6     8    14   1
     7     8     9   1
     8     9    10   2
     9    10    20   1
    10    10    11   1
    11    11    13   1
    12    13    15   1
    13    13    14   1
    14    15    16  ar
    15    16     2   1
    16    16    17  ar
    17    17    18  ar
    18    17     5  ar
    19     5     4  ar
    20     4     3  ar
    21     3    19  ar
    22    18    19  ar
    23    20    12   1
    24     3    21   1
    25     2    22   1
    26     2    23   1
    27     4    24   1
    28     7    25   1
    29     7    26   1
    30     8    27   1
    31     9    28   1
    32    11    29   1
    33    11    30   1
    34    12    31   1
    35    12    32   1
    36    12    33   1
    37    13    34   1
    38    14    35   1
    39    14    36   1
    40    18    37   1
    41    19    38   1
    42    20    39   1
    43    20    40   1
@<TRIPOS>SUBSTRUCTURE
     1  HUX      3

