@<TRIPOS>MOLECULE
1e66_ligand_032
    40    43
SMALL
GAST_HUCK
****
This file was generated by PARSER (from files_GN.cpp)

@<TRIPOS>ATOM
      1 N1          1.8562   61.8046   73.4318 N.ar        1 HUX      -0.3279
      2 N2          1.2609   58.0222   71.9156 N.pl3       1 HUX      -0.3283
      3 C1          3.4036   62.3160   70.1511 C.ar        1 HUX       0.0385
      4 C2          2.9322   62.5654   71.4516 C.ar        1 HUX      -0.0382
      5 C3          2.3017   61.5395   72.1829 C.ar        1 HUX       0.0183
      6 C4          1.2272   60.8955   74.2135 C.ar        1 HUX       0.0124
      7 C5          0.7986   61.3462   75.5656 C.3         1 HUX      -0.0021
      8 C6         -0.1303   60.3332   76.3027 C.3         1 HUX      -0.0218
      9 C7         -1.5018   60.4295   75.7917 C.2         1 HUX      -0.1032
     10 C8         -2.0040   59.6311   74.8215 C.2         1 HUX      -0.0790
     11 C9         -1.2120   58.5204   74.2677 C.3         1 HUX      -0.0183
     12 C10        -3.4435   61.0396   73.3437 C.3         1 HUX      -0.0568
     13 C11         0.3151   58.5659   74.6078 C.3         1 HUX       0.0005
     14 C12         0.4530   58.9044   76.1197 C.3         1 HUX      -0.0333
     15 C13         1.0273   59.5691   73.7350 C.ar        1 HUX       0.0103
     16 C14         1.4693   59.2594   72.4176 C.ar        1 HUX       0.0669
     17 C15         2.1222   60.2444   71.6249 C.ar        1 HUX       0.0195
     18 C16         2.6042   60.0149   70.3115 C.ar        1 HUX      -0.0525
     19 C17         3.2396   61.0384   69.5839 C.ar        1 HUX      -0.0494
     20 C18        -3.3656   59.8457   74.3236 C.3         1 HUX      -0.0310
     21 CL1         4.1632   63.5466   69.2716 Cl          1 HUX      -0.0699
     22 H1          0.8096   57.3483   72.4460 H           1 HUX       0.1779
     23 H2          1.5534   57.7971   71.0207 H           1 HUX       0.1779
     24 H3          3.0440   63.4950   71.8664 H           1 HUX       0.0596
     25 H4          0.2947   62.3143   75.4827 H           1 HUX       0.0470
     26 H5          1.6997   61.5019   76.1654 H           1 HUX       0.0470
     27 H6         -0.1420   60.5678   77.3718 H           1 HUX       0.0401
     28 H7         -2.0554   61.1831   76.1337 H           1 HUX       0.0247
     29 H8         -1.6310   57.5903   74.6613 H           1 HUX       0.0431
     30 H9         -1.3328   58.4911   73.1808 H           1 HUX       0.0431
     31 H10        -4.4695   61.1621   72.9930 H           1 HUX       0.0251
     32 H11        -2.7986   60.8620   72.4790 H           1 HUX       0.0251
     33 H12        -3.1339   61.9650   73.8316 H           1 HUX       0.0251
     34 H13         0.7509   57.5732   74.4627 H           1 HUX       0.0444
     35 H14        -0.0998   58.1846   76.7316 H           1 HUX       0.0305
     36 H15         1.5020   58.8699   76.4303 H           1 HUX       0.0305
     37 H16         2.5046   59.1017   69.8641 H           1 HUX       0.0636
     38 H17         3.5801   60.8483   68.6388 H           1 HUX       0.0590
     39 H18        -4.0495   60.0197   75.1606 H           1 HUX       0.0408
     40 H19        -3.7330   58.9587   73.8000 H           1 HUX       0.0408
@<TRIPOS>BOND
     1     1     5  ar
     2     1     6  ar
     3     6    15  ar
     4     6     7   1
     5     7     8   1
     6     8    14   1
     7     8     9   1
     8     9    10   2
     9    10    20   1
    10    10    11   1
    11    11    13   1
    12    13    15   1
    13    13    14   1
    14    15    16  ar
    15    16     2   1
    16    16    17  ar
    17    17    18  ar
    18    17     5  ar
    19     5     4  ar
    20     4     3  ar
    21     3    19  ar
    22    18    19  ar
    23    20    12   1
    24     3    21   1
    25     2    22   1
    26     2    23   1
    27     4    24   1
    28     7    25   1
    29     7    26   1
    30     8    27   1
    31     9    28   1
    32    11    29   1
    33    11    30   1
    34    12    31   1
    35    12    32   1
    36    12    33   1
    37    13    34   1
    38    14    35   1
    39    14    36   1
    40    18    37   1
    41    19    38   1
    42    20    39   1
    43    20    40   1
@<TRIPOS>SUBSTRUCTURE
     1  HUX      3

