@<TRIPOS>MOLECULE
1e66_ligand_049
    40    43
SMALL
GAST_HUCK
****
This file was generated by PARSER (from files_GN.cpp)

@<TRIPOS>ATOM
      1 N1          3.8839   70.0070   62.7977 N.ar        1 HUX      -0.3279
      2 N2          2.5260   67.1549   65.4531 N.pl3       1 HUX      -0.3283
      3 C1          0.7818   69.1106   61.0671 C.ar        1 HUX       0.0385
      4 C2          2.0081   69.7308   61.3609 C.ar        1 HUX      -0.0382
      5 C3          2.7173   69.3731   62.5228 C.ar        1 HUX       0.0183
      6 C4          4.6215   69.7599   63.9060 C.ar        1 HUX       0.0124
      7 C5          5.8867   70.5323   64.0813 C.3         1 HUX      -0.0021
      8 C6          6.5422   70.3841   65.4916 C.3         1 HUX      -0.0218
      9 C7          5.8783   71.1970   66.5158 C.2         1 HUX      -0.1032
     10 C8          4.9072   70.7358   67.3450 C.2         1 HUX      -0.0790
     11 C9          4.4836   69.3243   67.2639 C.3         1 HUX      -0.0183
     12 C10         4.3468   71.0202   69.8113 C.3         1 HUX      -0.0568
     13 C11         5.0233   68.5102   66.0513 C.3         1 HUX       0.0005
     14 C12         6.5210   68.8782   65.8617 C.3         1 HUX      -0.0333
     15 C13         4.1943   68.7711   64.8257 C.ar        1 HUX       0.0103
     16 C14         2.9710   68.0817   64.5784 C.ar        1 HUX       0.0669
     17 C15         2.2157   68.3849   63.4078 C.ar        1 HUX       0.0195
     18 C16         0.9858   67.7602   63.0880 C.ar        1 HUX      -0.0525
     19 C17         0.2747   68.1204   61.9271 C.ar        1 HUX      -0.0494
     20 C18         4.2931   71.5924   68.3688 C.3         1 HUX      -0.0310
     21 CL1        -0.0890   69.5668   59.6879 Cl          1 HUX      -0.0699
     22 H1          3.0294   66.9553   66.2577 H           1 HUX       0.1779
     23 H2          1.6987   66.6809   65.2893 H           1 HUX       0.1779
     24 H3          2.3754   70.4501   60.7338 H           1 HUX       0.0596
     25 H4          5.7002   71.5856   63.8907 H           1 HUX       0.0470
     26 H5          6.5890   70.1826   63.3204 H           1 HUX       0.0470
     27 H6          7.5853   70.7151   65.4341 H           1 HUX       0.0401
     28 H7          6.1682   72.1458   66.5916 H           1 HUX       0.0247
     29 H8          3.3910   69.2631   67.3019 H           1 HUX       0.0431
     30 H9          4.8659   68.8296   68.1568 H           1 HUX       0.0431
     31 H10         3.9244   71.7312   70.5225 H           1 HUX       0.0251
     32 H11         5.3844   70.8259   70.0831 H           1 HUX       0.0251
     33 H12         3.7771   70.0875   69.8759 H           1 HUX       0.0251
     34 H13         4.9821   67.4474   66.2731 H           1 HUX       0.0444
     35 H14         7.0873   68.7229   66.7839 H           1 HUX       0.0305
     36 H15         6.9756   68.2658   65.0777 H           1 HUX       0.0305
     37 H16         0.5874   67.0395   63.6898 H           1 HUX       0.0636
     38 H17        -0.6113   67.6632   61.7185 H           1 HUX       0.0590
     39 H18         4.7574   72.5839   68.4044 H           1 HUX       0.0408
     40 H19         3.2477   71.7453   68.0985 H           1 HUX       0.0408
@<TRIPOS>BOND
     1     1     5  ar
     2     1     6  ar
     3     6    15  ar
     4     6     7   1
     5     7     8   1
     6     8    14   1
     7     8     9   1
     8     9    10   2
     9    10    20   1
    10    10    11   1
    11    11    13   1
    12    13    15   1
    13    13    14   1
    14    15    16  ar
    15    16     2   1
    16    16    17  ar
    17    17    18  ar
    18    17     5  ar
    19     5     4  ar
    20     4     3  ar
    21     3    19  ar
    22    18    19  ar
    23    20    12   1
    24     3    21   1
    25     2    22   1
    26     2    23   1
    27     4    24   1
    28     7    25   1
    29     7    26   1
    30     8    27   1
    31     9    28   1
    32    11    29   1
    33    11    30   1
    34    12    31   1
    35    12    32   1
    36    12    33   1
    37    13    34   1
    38    14    35   1
    39    14    36   1
    40    18    37   1
    41    19    38   1
    42    20    39   1
    43    20    40   1
@<TRIPOS>SUBSTRUCTURE
     1  HUX      3

