@<TRIPOS>MOLECULE
1e66_ligand_024
    40    43
SMALL
GAST_HUCK
****
This file was generated by PARSER (from files_GN.cpp)

@<TRIPOS>ATOM
      1 N1          2.1762   62.5958   73.9931 N.ar        1 HUX      -0.3279
      2 N2         -0.5808   60.0588   72.2868 N.pl3       1 HUX      -0.3283
      3 C1          2.4417   59.8390   76.3974 C.ar        1 HUX       0.0385
      4 C2          2.6577   61.0778   75.7632 C.ar        1 HUX      -0.0382
      5 C3          1.9408   61.4063   74.5982 C.ar        1 HUX       0.0183
      6 C4          1.5504   62.9966   72.8592 C.ar        1 HUX       0.0124
      7 C5          1.9194   64.3264   72.3141 C.3         1 HUX      -0.0021
      8 C6          1.3634   64.6133   70.8820 C.3         1 HUX      -0.0218
      9 C7          2.1886   63.9395   69.8709 C.2         1 HUX      -0.1032
     10 C8          1.9383   62.6907   69.4078 C.2         1 HUX      -0.0790
     11 C9          0.6742   62.0229   69.7574 C.3         1 HUX      -0.0183
     12 C10         4.2570   61.7727   68.8276 C.3         1 HUX      -0.0568
     13 C11        -0.0973   62.6035   70.9849 C.3         1 HUX       0.0005
     14 C12        -0.1185   64.1513   70.8399 C.3         1 HUX      -0.0333
     15 C13         0.5687   62.1613   72.2646 C.ar        1 HUX       0.0103
     16 C14         0.3086   60.8943   72.8612 C.ar        1 HUX       0.0669
     17 C15         0.9932   60.5063   74.0416 C.ar        1 HUX       0.0195
     18 C16         0.7957   59.2598   74.6966 C.ar        1 HUX      -0.0525
     19 C17         1.5130   58.9362   75.8601 C.ar        1 HUX      -0.0494
     20 C18         2.8009   62.0659   68.3945 C.3         1 HUX      -0.0310
     21 CL1         3.3103   59.4431   77.7957 Cl          1 HUX      -0.0699
     22 H1         -1.0336   60.3212   71.4719 H           1 HUX       0.1779
     23 H2         -0.7658   59.1902   72.6697 H           1 HUX       0.1779
     24 H3          3.3459   61.7335   76.1427 H           1 HUX       0.0596
     25 H4          3.0059   64.4233   72.3002 H           1 HUX       0.0470
     26 H5          1.5228   65.0776   72.9994 H           1 HUX       0.0470
     27 H6          1.3895   65.6946   70.6994 H           1 HUX       0.0401
     28 H7          3.0163   64.4076   69.5830 H           1 HUX       0.0247
     29 H8          0.0273   62.1037   68.8809 H           1 HUX       0.0431
     30 H9          0.8637   60.9598   69.9324 H           1 HUX       0.0431
     31 H10         4.7567   61.1976   68.0429 H           1 HUX       0.0251
     32 H11         4.2863   61.1876   69.7493 H           1 HUX       0.0251
     33 H12         4.8166   62.6987   68.9750 H           1 HUX       0.0251
     34 H13        -1.1323   62.2613   70.9632 H           1 HUX       0.0444
     35 H14        -0.5940   64.4420   69.8964 H           1 HUX       0.0305
     36 H15        -0.6979   64.5987   71.6549 H           1 HUX       0.0305
     37 H16         0.1323   58.5756   74.3296 H           1 HUX       0.0636
     38 H17         1.3547   58.0294   76.3101 H           1 HUX       0.0590
     39 H18         2.8224   62.7030   67.5140 H           1 HUX       0.0408
     40 H19         2.3752   61.1106   68.0852 H           1 HUX       0.0408
@<TRIPOS>BOND
     1     1     5  ar
     2     1     6  ar
     3     6    15  ar
     4     6     7   1
     5     7     8   1
     6     8    14   1
     7     8     9   1
     8     9    10   2
     9    10    20   1
    10    10    11   1
    11    11    13   1
    12    13    15   1
    13    13    14   1
    14    15    16  ar
    15    16     2   1
    16    16    17  ar
    17    17    18  ar
    18    17     5  ar
    19     5     4  ar
    20     4     3  ar
    21     3    19  ar
    22    18    19  ar
    23    20    12   1
    24     3    21   1
    25     2    22   1
    26     2    23   1
    27     4    24   1
    28     7    25   1
    29     7    26   1
    30     8    27   1
    31     9    28   1
    32    11    29   1
    33    11    30   1
    34    12    31   1
    35    12    32   1
    36    12    33   1
    37    13    34   1
    38    14    35   1
    39    14    36   1
    40    18    37   1
    41    19    38   1
    42    20    39   1
    43    20    40   1
@<TRIPOS>SUBSTRUCTURE
     1  HUX      3

