@<TRIPOS>MOLECULE
1e66_ligand_019
    40    43
SMALL
GAST_HUCK
****
This file was generated by PARSER (from files_GN.cpp)

@<TRIPOS>ATOM
      1 N1          1.0761   62.3931   73.1531 N.ar        1 HUX      -0.3279
      2 N2          5.0480   62.4651   72.0663 N.pl3       1 HUX      -0.3283
      3 C1          0.9654   65.3410   70.9781 C.ar        1 HUX       0.0385
      4 C2          0.5563   64.3164   71.8508 C.ar        1 HUX      -0.0382
      5 C3          1.4924   63.3734   72.3186 C.ar        1 HUX       0.0183
      6 C4          1.8940   61.4372   73.6557 C.ar        1 HUX       0.0124
      7 C5          1.2844   60.4346   74.5706 C.3         1 HUX      -0.0021
      8 C6          2.2331   59.2521   74.9413 C.3         1 HUX      -0.0218
      9 C7          2.2745   58.2556   73.8657 C.2         1 HUX      -0.1032
     10 C8          3.2018   58.2453   72.8818 C.2         1 HUX      -0.0790
     11 C9          4.3285   59.1955   72.8902 C.3         1 HUX      -0.0183
     12 C10         1.9612   57.3946   70.8715 C.3         1 HUX      -0.0568
     13 C11         4.1847   60.3863   73.8953 C.3         1 HUX       0.0005
     14 C12         3.6472   59.8223   75.2412 C.3         1 HUX      -0.0333
     15 C13         3.2788   61.4504   73.3298 C.ar        1 HUX       0.0103
     16 C14         3.7484   62.4535   72.4350 C.ar        1 HUX       0.0669
     17 C15         2.8565   63.4356   71.9236 C.ar        1 HUX       0.0195
     18 C16         3.2454   64.4757   71.0417 C.ar        1 HUX      -0.0525
     19 C17         2.3106   65.4182   70.5748 C.ar        1 HUX      -0.0494
     20 C18         3.1508   57.2164   71.8387 C.3         1 HUX      -0.0310
     21 CL1        -0.1573   66.4753   70.4138 Cl          1 HUX      -0.0699
     22 H1          5.6589   61.7912   72.4006 H           1 HUX       0.1779
     23 H2          5.3809   63.1377   71.4542 H           1 HUX       0.1779
     24 H3         -0.4219   64.2559   72.1449 H           1 HUX       0.0596
     25 H4          0.3662   60.0442   74.1210 H           1 HUX       0.0470
     26 H5          0.9988   60.9578   75.4878 H           1 HUX       0.0470
     27 H6          1.8577   58.7653   75.8471 H           1 HUX       0.0401
     28 H7          1.5249   57.6002   73.8318 H           1 HUX       0.0247
     29 H8          4.4810   59.5994   71.8871 H           1 HUX       0.0431
     30 H9          5.2305   58.6339   73.1482 H           1 HUX       0.0431
     31 H10         1.9967   56.6211   70.0999 H           1 HUX       0.0251
     32 H11         2.0037   58.3697   70.3820 H           1 HUX       0.0251
     33 H12         1.0131   57.3057   71.4081 H           1 HUX       0.0251
     34 H13         5.1708   60.8108   74.1019 H           1 HUX       0.0444
     35 H14         4.3054   59.0346   75.6217 H           1 HUX       0.0305
     36 H15         3.5980   60.6108   75.9977 H           1 HUX       0.0305
     37 H16         4.2132   64.5655   70.7275 H           1 HUX       0.0636
     38 H17         2.6165   66.1602   69.9409 H           1 HUX       0.0590
     39 H18         4.0850   57.2235   71.2685 H           1 HUX       0.0408
     40 H19         3.0754   56.2185   72.2801 H           1 HUX       0.0408
@<TRIPOS>BOND
     1     1     5  ar
     2     1     6  ar
     3     6    15  ar
     4     6     7   1
     5     7     8   1
     6     8    14   1
     7     8     9   1
     8     9    10   2
     9    10    20   1
    10    10    11   1
    11    11    13   1
    12    13    15   1
    13    13    14   1
    14    15    16  ar
    15    16     2   1
    16    16    17  ar
    17    17    18  ar
    18    17     5  ar
    19     5     4  ar
    20     4     3  ar
    21     3    19  ar
    22    18    19  ar
    23    20    12   1
    24     3    21   1
    25     2    22   1
    26     2    23   1
    27     4    24   1
    28     7    25   1
    29     7    26   1
    30     8    27   1
    31     9    28   1
    32    11    29   1
    33    11    30   1
    34    12    31   1
    35    12    32   1
    36    12    33   1
    37    13    34   1
    38    14    35   1
    39    14    36   1
    40    18    37   1
    41    19    38   1
    42    20    39   1
    43    20    40   1
@<TRIPOS>SUBSTRUCTURE
     1  HUX      3

