@<TRIPOS>MOLECULE
1e66_ligand_022
    40    43
SMALL
GAST_HUCK
****
This file was generated by PARSER (from files_GN.cpp)

@<TRIPOS>ATOM
      1 N1          1.4944   61.9075   70.5613 N.ar        1 HUX      -0.3279
      2 N2          4.6920   62.0973   73.1492 N.pl3       1 HUX      -0.3283
      3 C1          3.8799   63.5245   68.3067 C.ar        1 HUX       0.0385
      4 C2          2.7068   62.9199   68.7917 C.ar        1 HUX      -0.0382
      5 C3          2.6444   62.4649   70.1204 C.ar        1 HUX       0.0183
      6 C4          1.3313   61.4242   71.8146 C.ar        1 HUX       0.0124
      7 C5         -0.0090   60.8738   72.1531 C.3         1 HUX      -0.0021
      8 C6         -0.0374   60.0841   73.4966 C.3         1 HUX      -0.0218
      9 C7          0.5368   58.7480   73.3093 C.2         1 HUX      -0.1032
     10 C8          1.8268   58.4371   73.5776 C.2         1 HUX      -0.0790
     11 C9          2.7412   59.4293   74.1658 C.3         1 HUX      -0.0183
     12 C10         2.7129   56.8984   71.8239 C.3         1 HUX      -0.0568
     13 C11         2.2274   60.9068   74.1245 C.3         1 HUX       0.0005
     14 C12         0.7366   60.9021   74.5683 C.3         1 HUX      -0.0333
     15 C13         2.4062   61.4916   72.7452 C.ar        1 HUX       0.0103
     16 C14         3.6363   62.0641   72.3075 C.ar        1 HUX       0.0669
     17 C15         3.7626   62.5822   70.9900 C.ar        1 HUX       0.0195
     18 C16         4.9318   63.2082   70.4871 C.ar        1 HUX      -0.0525
     19 C17         4.9826   63.6883   69.1644 C.ar        1 HUX      -0.0494
     20 C18         2.3262   57.0857   73.3095 C.3         1 HUX      -0.0310
     21 CL1         3.9508   64.0369   66.6951 Cl          1 HUX      -0.0699
     22 H1          4.6115   61.7262   74.0387 H           1 HUX       0.1779
     23 H2          5.5440   62.4678   72.8700 H           1 HUX       0.1779
     24 H3          1.8960   62.8153   68.1760 H           1 HUX       0.0596
     25 H4         -0.3601   60.2327   71.3379 H           1 HUX       0.0470
     26 H5         -0.7025   61.7168   72.2197 H           1 HUX       0.0470
     27 H6         -1.0751   59.9732   73.8248 H           1 HUX       0.0401
     28 H7         -0.0491   58.0641   72.8873 H           1 HUX       0.0247
     29 H8          2.9071   59.1476   75.2094 H           1 HUX       0.0431
     30 H9          3.7120   59.3782   73.6638 H           1 HUX       0.0431
     31 H10         3.0728   55.8808   71.6633 H           1 HUX       0.0251
     32 H11         3.5085   57.5943   71.5477 H           1 HUX       0.0251
     33 H12         1.8520   57.0674   71.1722 H           1 HUX       0.0251
     34 H13         2.7764   61.5070   74.8562 H           1 HUX       0.0444
     35 H14         0.6289   60.4403   75.5543 H           1 HUX       0.0305
     36 H15         0.3510   61.9247   74.6354 H           1 HUX       0.0305
     37 H16         5.7585   63.3284   71.0747 H           1 HUX       0.0636
     38 H17         5.8309   64.1497   68.8281 H           1 HUX       0.0590
     39 H18         1.5750   56.3389   73.5854 H           1 HUX       0.0408
     40 H19         3.2076   56.8760   73.9193 H           1 HUX       0.0408
@<TRIPOS>BOND
     1     1     5  ar
     2     1     6  ar
     3     6    15  ar
     4     6     7   1
     5     7     8   1
     6     8    14   1
     7     8     9   1
     8     9    10   2
     9    10    20   1
    10    10    11   1
    11    11    13   1
    12    13    15   1
    13    13    14   1
    14    15    16  ar
    15    16     2   1
    16    16    17  ar
    17    17    18  ar
    18    17     5  ar
    19     5     4  ar
    20     4     3  ar
    21     3    19  ar
    22    18    19  ar
    23    20    12   1
    24     3    21   1
    25     2    22   1
    26     2    23   1
    27     4    24   1
    28     7    25   1
    29     7    26   1
    30     8    27   1
    31     9    28   1
    32    11    29   1
    33    11    30   1
    34    12    31   1
    35    12    32   1
    36    12    33   1
    37    13    34   1
    38    14    35   1
    39    14    36   1
    40    18    37   1
    41    19    38   1
    42    20    39   1
    43    20    40   1
@<TRIPOS>SUBSTRUCTURE
     1  HUX      3

