@<TRIPOS>MOLECULE
1e66_ligand_006
    40    43
SMALL
GAST_HUCK
****
This file was generated by PARSER (from files_GN.cpp)

@<TRIPOS>ATOM
      1 N1          2.9027   63.0176   73.4341 N.ar        1 HUX      -0.3279
      2 N2          1.7945   62.9445   69.4710 N.pl3       1 HUX      -0.3283
      3 C1         -0.0679   65.1487   73.6895 C.ar        1 HUX       0.0385
      4 C2          1.0720   64.4084   74.0513 C.ar        1 HUX      -0.0382
      5 C3          1.7991   63.7105   73.0675 C.ar        1 HUX       0.0183
      6 C4          3.6749   62.3243   72.5652 C.ar        1 HUX       0.0124
      7 C5          4.8793   61.6521   73.1193 C.3         1 HUX      -0.0021
      8 C6          5.6119   60.7229   72.1044 C.3         1 HUX      -0.0218
      9 C7          4.9303   59.4310   71.9947 C.2         1 HUX      -0.1032
     10 C8          4.0039   59.1367   71.0527 C.2         1 HUX      -0.0790
     11 C9          3.6770   60.1041   69.9900 C.3         1 HUX      -0.0183
     12 C10         2.5233   57.4628   72.2331 C.3         1 HUX      -0.0568
     13 C11         4.2269   61.5522   70.2165 C.3         1 HUX       0.0005
     14 C12         5.6891   61.4432   70.7323 C.3         1 HUX      -0.0333
     15 C13         3.3496   62.3102   71.1810 C.ar        1 HUX       0.0103
     16 C14         2.1735   62.9977   70.7657 C.ar        1 HUX       0.0669
     17 C15         1.3938   63.7262   71.7059 C.ar        1 HUX       0.0195
     18 C16         0.2396   64.4774   71.3645 C.ar        1 HUX      -0.0525
     19 C17        -0.4774   65.1865   72.3455 C.ar        1 HUX      -0.0494
     20 C18         3.4081   57.7989   71.0063 C.3         1 HUX      -0.0310
     21 CL1        -0.9465   65.9893   74.8658 Cl          1 HUX      -0.0699
     22 H1          2.3094   62.4340   68.8266 H           1 HUX       0.1779
     23 H2          0.9877   63.3928   69.1770 H           1 HUX       0.1779
     24 H3          1.3793   64.3848   75.0274 H           1 HUX       0.0596
     25 H4          4.6033   61.0875   74.0163 H           1 HUX       0.0470
     26 H5          5.5746   62.4367   73.4273 H           1 HUX       0.0470
     27 H6          6.6326   60.5485   72.4620 H           1 HUX       0.0401
     28 H7          5.1456   58.7556   72.6930 H           1 HUX       0.0247
     29 H8          2.5903   60.1494   69.8611 H           1 HUX       0.0431
     30 H9          4.0934   59.7208   69.0540 H           1 HUX       0.0431
     31 H10         2.1208   56.4487   72.1328 H           1 HUX       0.0251
     32 H11         1.6874   58.1640   72.2977 H           1 HUX       0.0251
     33 H12         3.0950   57.5064   73.1600 H           1 HUX       0.0251
     34 H13         4.2689   62.0807   69.2599 H           1 HUX       0.0444
     35 H14         6.1378   62.4324   70.8383 H           1 HUX       0.0305
     36 H15         6.3058   60.8670   70.0401 H           1 HUX       0.0305
     37 H16        -0.0886   64.5263   70.3989 H           1 HUX       0.0636
     38 H17        -1.2977   65.7307   72.0734 H           1 HUX       0.0590
     39 H18         4.2089   57.0587   70.9273 H           1 HUX       0.0408
     40 H19         2.7796   57.6785   70.1167 H           1 HUX       0.0408
@<TRIPOS>BOND
     1     1     5  ar
     2     1     6  ar
     3     6    15  ar
     4     6     7   1
     5     7     8   1
     6     8    14   1
     7     8     9   1
     8     9    10   2
     9    10    20   1
    10    10    11   1
    11    11    13   1
    12    13    15   1
    13    13    14   1
    14    15    16  ar
    15    16     2   1
    16    16    17  ar
    17    17    18  ar
    18    17     5  ar
    19     5     4  ar
    20     4     3  ar
    21     3    19  ar
    22    18    19  ar
    23    20    12   1
    24     3    21   1
    25     2    22   1
    26     2    23   1
    27     4    24   1
    28     7    25   1
    29     7    26   1
    30     8    27   1
    31     9    28   1
    32    11    29   1
    33    11    30   1
    34    12    31   1
    35    12    32   1
    36    12    33   1
    37    13    34   1
    38    14    35   1
    39    14    36   1
    40    18    37   1
    41    19    38   1
    42    20    39   1
    43    20    40   1
@<TRIPOS>SUBSTRUCTURE
     1  HUX      3

