@<TRIPOS>MOLECULE
1e66_ligand_040
    40    43
SMALL
GAST_HUCK
****
This file was generated by PARSER (from files_GN.cpp)

@<TRIPOS>ATOM
      1 N1          2.5108   66.0943   66.2989 N.ar        1 HUX      -0.3279
      2 N2          4.8061   64.1967   63.4513 N.pl3       1 HUX      -0.3283
      3 C1          3.4065   63.1186   68.2406 C.ar        1 HUX       0.0385
      4 C2          2.8581   64.3665   67.9004 C.ar        1 HUX      -0.0382
      5 C3          3.0644   64.9022   66.6124 C.ar        1 HUX       0.0183
      6 C4          2.6529   66.6959   65.0936 C.ar        1 HUX       0.0124
      7 C5          1.9650   68.0000   64.8996 C.3         1 HUX      -0.0021
      8 C6          2.3353   68.7284   63.5690 C.3         1 HUX      -0.0218
      9 C7          3.6074   69.4344   63.6988 C.2         1 HUX      -0.1032
     10 C8          4.8135   68.8919   63.4183 C.2         1 HUX      -0.0790
     11 C9          4.8998   67.5838   62.7427 C.3         1 HUX      -0.0183
     12 C10         6.2119   70.2671   65.0461 C.3         1 HUX      -0.0568
     13 C11         3.5814   66.7401   62.7433 C.3         1 HUX       0.0005
     14 C12         2.3937   67.6899   62.4173 C.3         1 HUX      -0.0333
     15 C13         3.4072   66.0539   64.0713 C.ar        1 HUX       0.0103
     16 C14         4.0250   64.8081   64.3706 C.ar        1 HUX       0.0669
     17 C15         3.8406   64.2047   65.6469 C.ar        1 HUX       0.0195
     18 C16         4.3882   62.9514   66.0153 C.ar        1 HUX      -0.0525
     19 C17         4.1733   62.4129   67.2970 C.ar        1 HUX      -0.0494
     20 C18         6.0417   69.6692   63.6219 C.3         1 HUX      -0.0310
     21 CL1         3.1425   62.4591   69.7795 Cl          1 HUX      -0.0699
     22 H1          4.9674   64.5984   62.5862 H           1 HUX       0.1779
     23 H2          5.2354   63.3542   63.6607 H           1 HUX       0.1779
     24 H3          2.2989   64.8818   68.5829 H           1 HUX       0.0596
     25 H4          2.1801   68.6534   65.7523 H           1 HUX       0.0470
     26 H5          0.8889   67.8077   64.9036 H           1 HUX       0.0470
     27 H6          1.5613   69.4691   63.3416 H           1 HUX       0.0401
     28 H7          3.5604   70.3405   64.1003 H           1 HUX       0.0247
     29 H8          5.7023   66.9893   63.1893 H           1 HUX       0.0431
     30 H9          5.1840   67.7737   61.7034 H           1 HUX       0.0431
     31 H10         7.1808   70.7665   65.1271 H           1 HUX       0.0251
     32 H11         6.1493   69.4804   65.8012 H           1 HUX       0.0251
     33 H12         5.4512   71.0168   65.2532 H           1 HUX       0.0251
     34 H13         3.6201   65.9958   61.9423 H           1 HUX       0.0444
     35 H14         2.5485   68.1923   61.4566 H           1 HUX       0.0305
     36 H15         1.4542   67.1357   62.3584 H           1 HUX       0.0305
     37 H16         4.9517   62.4110   65.3572 H           1 HUX       0.0636
     38 H17         4.5837   61.5098   67.5412 H           1 HUX       0.0590
     39 H18         6.9236   69.0477   63.4251 H           1 HUX       0.0408
     40 H19         6.0642   70.4864   62.8968 H           1 HUX       0.0408
@<TRIPOS>BOND
     1     1     5  ar
     2     1     6  ar
     3     6    15  ar
     4     6     7   1
     5     7     8   1
     6     8    14   1
     7     8     9   1
     8     9    10   2
     9    10    20   1
    10    10    11   1
    11    11    13   1
    12    13    15   1
    13    13    14   1
    14    15    16  ar
    15    16     2   1
    16    16    17  ar
    17    17    18  ar
    18    17     5  ar
    19     5     4  ar
    20     4     3  ar
    21     3    19  ar
    22    18    19  ar
    23    20    12   1
    24     3    21   1
    25     2    22   1
    26     2    23   1
    27     4    24   1
    28     7    25   1
    29     7    26   1
    30     8    27   1
    31     9    28   1
    32    11    29   1
    33    11    30   1
    34    12    31   1
    35    12    32   1
    36    12    33   1
    37    13    34   1
    38    14    35   1
    39    14    36   1
    40    18    37   1
    41    19    38   1
    42    20    39   1
    43    20    40   1
@<TRIPOS>SUBSTRUCTURE
     1  HUX      3

