@<TRIPOS>MOLECULE
1e66_ligand_008
    40    43
SMALL
GAST_HUCK
****
This file was generated by PARSER (from files_GN.cpp)

@<TRIPOS>ATOM
      1 N1          1.6283   68.7030   61.3843 N.ar        1 HUX      -0.3279
      2 N2          1.1660   66.8837   65.0514 N.pl3       1 HUX      -0.3283
      3 C1         -1.7248   69.9524   62.1574 C.ar        1 HUX       0.0385
      4 C2         -0.5116   69.7324   61.4819 C.ar        1 HUX      -0.0382
      5 C3          0.4648   68.8894   62.0463 C.ar        1 HUX       0.0183
      6 C4          2.6409   67.9337   61.8530 C.ar        1 HUX       0.0124
      7 C5          3.8732   67.8562   61.0231 C.3         1 HUX      -0.0021
      8 C6          5.0732   67.1762   61.7497 C.3         1 HUX      -0.0218
      9 C7          5.7121   68.1090   62.6888 C.2         1 HUX      -0.1032
     10 C8          5.4325   68.1741   64.0094 C.2         1 HUX      -0.0790
     11 C9          4.5146   67.1916   64.6188 C.3         1 HUX      -0.0183
     12 C10         5.4276   69.7949   66.0127 C.3         1 HUX      -0.0568
     13 C11         3.6272   66.3952   63.6059 C.3         1 HUX       0.0005
     14 C12         4.5611   65.9004   62.4654 C.3         1 HUX      -0.0333
     15 C13         2.4951   67.2481   63.0912 C.ar        1 HUX       0.0103
     16 C14         1.2981   67.4488   63.8319 C.ar        1 HUX       0.0669
     17 C15         0.2570   68.2641   63.3063 C.ar        1 HUX       0.0195
     18 C16        -0.9742   68.5008   63.9677 C.ar        1 HUX      -0.0525
     19 C17        -1.9575   69.3238   63.3970 C.ar        1 HUX      -0.0494
     20 C18         6.2065   69.0751   64.8809 C.3         1 HUX      -0.0310
     21 CL1        -2.8823   71.0076   61.5191 Cl          1 HUX      -0.0699
     22 H1          1.8841   66.3467   65.4198 H           1 HUX       0.1779
     23 H2          0.3877   67.0638   65.5992 H           1 HUX       0.1779
     24 H3         -0.3347   70.1931   60.5842 H           1 HUX       0.0596
     25 H4          4.1637   68.8634   60.7120 H           1 HUX       0.0470
     26 H5          3.6401   67.2917   60.1155 H           1 HUX       0.0470
     27 H6          5.8188   66.8750   61.0133 H           1 HUX       0.0401
     28 H7          6.3796   68.7371   62.2949 H           1 HUX       0.0247
     29 H8          3.8589   67.6844   65.3388 H           1 HUX       0.0431
     30 H9          5.1289   66.4766   65.1717 H           1 HUX       0.0431
     31 H10         6.0535   70.5804   66.4438 H           1 HUX       0.0251
     32 H11         5.1824   69.0984   66.8179 H           1 HUX       0.0251
     33 H12         4.5083   70.2463   65.6286 H           1 HUX       0.0251
     34 H13         3.2161   65.5085   64.0922 H           1 HUX       0.0444
     35 H14         5.3989   65.3233   62.8720 H           1 HUX       0.0305
     36 H15         4.0173   65.2551   61.7685 H           1 HUX       0.0305
     37 H16        -1.1695   68.0878   64.8823 H           1 HUX       0.0636
     38 H17        -2.8356   69.4872   63.8983 H           1 HUX       0.0590
     39 H18         7.0067   68.4896   65.3404 H           1 HUX       0.0408
     40 H19         6.6848   69.8671   64.2917 H           1 HUX       0.0408
@<TRIPOS>BOND
     1     1     5  ar
     2     1     6  ar
     3     6    15  ar
     4     6     7   1
     5     7     8   1
     6     8    14   1
     7     8     9   1
     8     9    10   2
     9    10    20   1
    10    10    11   1
    11    11    13   1
    12    13    15   1
    13    13    14   1
    14    15    16  ar
    15    16     2   1
    16    16    17  ar
    17    17    18  ar
    18    17     5  ar
    19     5     4  ar
    20     4     3  ar
    21     3    19  ar
    22    18    19  ar
    23    20    12   1
    24     3    21   1
    25     2    22   1
    26     2    23   1
    27     4    24   1
    28     7    25   1
    29     7    26   1
    30     8    27   1
    31     9    28   1
    32    11    29   1
    33    11    30   1
    34    12    31   1
    35    12    32   1
    36    12    33   1
    37    13    34   1
    38    14    35   1
    39    14    36   1
    40    18    37   1
    41    19    38   1
    42    20    39   1
    43    20    40   1
@<TRIPOS>SUBSTRUCTURE
     1  HUX      3

