@<TRIPOS>MOLECULE
1e66_ligand_042
    40    43
SMALL
GAST_HUCK
****
This file was generated by PARSER (from files_GN.cpp)

@<TRIPOS>ATOM
      1 N1          2.8024   59.7528   74.2904 N.ar        1 HUX      -0.3279
      2 N2         -1.2642   59.2286   73.9048 N.pl3       1 HUX      -0.3283
      3 C1          2.8515   57.2759   71.5916 C.ar        1 HUX       0.0385
      4 C2          3.2941   58.1816   72.5720 C.ar        1 HUX      -0.0382
      5 C3          2.3589   58.8560   73.3822 C.ar        1 HUX       0.0183
      6 C4          1.9842   60.4797   75.0865 C.ar        1 HUX       0.0124
      7 C5          2.6297   61.4349   76.0205 C.3         1 HUX      -0.0021
      8 C6          1.6394   62.4289   76.7025 C.3         1 HUX      -0.0218
      9 C7          1.2920   63.5238   75.7917 C.2         1 HUX      -0.1032
     10 C8          0.2044   63.5201   74.9873 C.2         1 HUX      -0.0790
     11 C9         -0.7849   62.4305   75.0542 C.3         1 HUX      -0.0183
     12 C10        -0.6007   65.8928   74.8216 C.3         1 HUX      -0.0568
     13 C11        -0.3280   61.1649   75.8529 C.3         1 HUX       0.0005
     14 C12         0.3787   61.6418   77.1543 C.3         1 HUX      -0.0333
     15 C13         0.5735   60.3081   75.0031 C.ar        1 HUX       0.0103
     16 C14         0.0693   59.3767   74.0521 C.ar        1 HUX       0.0669
     17 C15         0.9631   58.6298   73.2382 C.ar        1 HUX       0.0195
     18 C16         0.5437   57.6836   72.2716 C.ar        1 HUX      -0.0525
     19 C17         1.4754   57.0277   71.4479 C.ar        1 HUX      -0.0494
     20 C18        -0.0447   64.6518   74.0875 C.3         1 HUX      -0.0310
     21 CL1         3.9627   56.5011   70.5769 Cl          1 HUX      -0.0699
     22 H1         -1.8782   59.7559   74.4365 H           1 HUX       0.1779
     23 H2         -1.6226   58.6122   73.2481 H           1 HUX       0.1779
     24 H3          4.2942   58.3682   72.6804 H           1 HUX       0.0596
     25 H4          3.3934   61.9924   75.4734 H           1 HUX       0.0470
     26 H5          3.1421   60.8543   76.7930 H           1 HUX       0.0470
     27 H6          2.1171   62.8559   77.5892 H           1 HUX       0.0401
     28 H7          1.9462   64.2711   75.7167 H           1 HUX       0.0247
     29 H8         -1.6845   62.8331   75.5281 H           1 HUX       0.0431
     30 H9         -1.0676   62.1268   74.0419 H           1 HUX       0.0431
     31 H10        -0.7656   66.7050   74.1079 H           1 HUX       0.0251
     32 H11         0.1069   66.2408   75.5766 H           1 HUX       0.0251
     33 H12        -1.5518   65.6560   75.3088 H           1 HUX       0.0251
     34 H13        -1.2056   60.5876   76.1597 H           1 HUX       0.0444
     35 H14        -0.2853   62.2840   77.7411 H           1 HUX       0.0305
     36 H15         0.6550   60.7869   77.7788 H           1 HUX       0.0305
     37 H16        -0.4463   57.4684   72.1452 H           1 HUX       0.0636
     38 H17         1.1448   56.3779   70.7335 H           1 HUX       0.0590
     39 H18        -0.7636   64.3809   73.3114 H           1 HUX       0.0408
     40 H19         0.8814   64.9224   73.5692 H           1 HUX       0.0408
@<TRIPOS>BOND
     1     1     5  ar
     2     1     6  ar
     3     6    15  ar
     4     6     7   1
     5     7     8   1
     6     8    14   1
     7     8     9   1
     8     9    10   2
     9    10    20   1
    10    10    11   1
    11    11    13   1
    12    13    15   1
    13    13    14   1
    14    15    16  ar
    15    16     2   1
    16    16    17  ar
    17    17    18  ar
    18    17     5  ar
    19     5     4  ar
    20     4     3  ar
    21     3    19  ar
    22    18    19  ar
    23    20    12   1
    24     3    21   1
    25     2    22   1
    26     2    23   1
    27     4    24   1
    28     7    25   1
    29     7    26   1
    30     8    27   1
    31     9    28   1
    32    11    29   1
    33    11    30   1
    34    12    31   1
    35    12    32   1
    36    12    33   1
    37    13    34   1
    38    14    35   1
    39    14    36   1
    40    18    37   1
    41    19    38   1
    42    20    39   1
    43    20    40   1
@<TRIPOS>SUBSTRUCTURE
     1  HUX      3

