@<TRIPOS>MOLECULE
1e66_ligand_011
    40    43
SMALL
GAST_HUCK
****
This file was generated by PARSER (from files_GN.cpp)

@<TRIPOS>ATOM
      1 N1          0.3153   60.0190   72.1903 N.ar        1 HUX      -0.3279
      2 N2          3.1511   57.9477   70.0480 N.pl3       1 HUX      -0.3283
      3 C1         -0.0499   56.7806   73.8605 C.ar        1 HUX       0.0385
      4 C2         -0.2308   58.1379   73.5355 C.ar        1 HUX      -0.0382
      5 C3          0.5214   58.7171   72.4971 C.ar        1 HUX       0.0183
      6 C4          0.9806   60.6685   71.2063 C.ar        1 HUX       0.0124
      7 C5          0.6150   62.0894   70.9754 C.3         1 HUX      -0.0021
      8 C6          1.5602   62.8157   69.9713 C.3         1 HUX      -0.0218
      9 C7          2.8013   63.2093   70.6425 C.2         1 HUX      -0.1032
     10 C8          3.9662   62.5306   70.5440 C.2         1 HUX      -0.0790
     11 C9          4.0414   61.2639   69.7941 C.3         1 HUX      -0.0183
     12 C10         5.5543   64.4957   70.8270 C.3         1 HUX      -0.0568
     13 C11         2.6640   60.6940   69.3077 C.3         1 HUX       0.0005
     14 C12         1.8303   61.8838   68.7544 C.3         1 HUX      -0.0333
     15 C13         1.9466   59.9766   70.4237 C.ar        1 HUX       0.0103
     16 C14         2.2047   58.6136   70.7398 C.ar        1 HUX       0.0669
     17 C15         1.4772   57.9592   71.7694 C.ar        1 HUX       0.0195
     18 C16         1.6426   56.5925   72.1114 C.ar        1 HUX      -0.0525
     19 C17         0.8824   56.0101   73.1422 C.ar        1 HUX      -0.0494
     20 C18         5.1750   63.0373   71.1957 C.3         1 HUX      -0.0310
     21 CL1        -0.9519   56.0837   75.1097 Cl          1 HUX      -0.0699
     22 H1          3.6612   58.4074   69.3638 H           1 HUX       0.1779
     23 H2          3.3434   57.0206   70.2407 H           1 HUX       0.1779
     24 H3         -0.9099   58.7025   74.0516 H           1 HUX       0.0596
     25 H4          0.6160   62.6232   71.9314 H           1 HUX       0.0470
     26 H5         -0.4059   62.1166   70.5872 H           1 HUX       0.0470
     27 H6          1.0644   63.7208   69.6117 H           1 HUX       0.0401
     28 H7          2.7500   64.0071   71.2378 H           1 HUX       0.0247
     29 H8          4.5406   60.5077   70.4083 H           1 HUX       0.0431
     30 H9          4.6771   61.4323   68.9185 H           1 HUX       0.0431
     31 H10         6.5019   64.7568   71.3024 H           1 HUX       0.0251
     32 H11         4.7944   65.1960   71.1747 H           1 HUX       0.0251
     33 H12         5.6719   64.5985   69.7475 H           1 HUX       0.0251
     34 H13         2.8302   60.0049   68.4735 H           1 HUX       0.0444
     35 H14         0.8955   61.5324   68.3114 H           1 HUX       0.0305
     36 H15         2.3870   62.4180   67.9778 H           1 HUX       0.0305
     37 H16         2.3080   56.0011   71.6102 H           1 HUX       0.0636
     38 H17         1.0148   55.0211   73.3683 H           1 HUX       0.0590
     39 H18         6.0392   62.4115   70.9456 H           1 HUX       0.0408
     40 H19         5.0410   62.9658   72.2758 H           1 HUX       0.0408
@<TRIPOS>BOND
     1     1     5  ar
     2     1     6  ar
     3     6    15  ar
     4     6     7   1
     5     7     8   1
     6     8    14   1
     7     8     9   1
     8     9    10   2
     9    10    20   1
    10    10    11   1
    11    11    13   1
    12    13    15   1
    13    13    14   1
    14    15    16  ar
    15    16     2   1
    16    16    17  ar
    17    17    18  ar
    18    17     5  ar
    19     5     4  ar
    20     4     3  ar
    21     3    19  ar
    22    18    19  ar
    23    20    12   1
    24     3    21   1
    25     2    22   1
    26     2    23   1
    27     4    24   1
    28     7    25   1
    29     7    26   1
    30     8    27   1
    31     9    28   1
    32    11    29   1
    33    11    30   1
    34    12    31   1
    35    12    32   1
    36    12    33   1
    37    13    34   1
    38    14    35   1
    39    14    36   1
    40    18    37   1
    41    19    38   1
    42    20    39   1
    43    20    40   1
@<TRIPOS>SUBSTRUCTURE
     1  HUX      3

