@<TRIPOS>MOLECULE
1e66_ligand_014
    40    43
SMALL
GAST_HUCK
****
This file was generated by PARSER (from files_GN.cpp)

@<TRIPOS>ATOM
      1 N1          2.6709   58.7549   71.4842 N.ar        1 HUX      -0.3279
      2 N2          5.7856   60.8332   73.2011 N.pl3       1 HUX      -0.3283
      3 C1          3.0213   56.7499   74.5280 C.ar        1 HUX       0.0385
      4 C2          2.5593   57.2013   73.2790 C.ar        1 HUX      -0.0382
      5 C3          3.1477   58.3294   72.6752 C.ar        1 HUX       0.0183
      6 C4          3.1542   59.8348   70.8259 C.ar        1 HUX       0.0124
      7 C5          2.4943   60.1840   69.5410 C.3         1 HUX      -0.0021
      8 C6          2.9254   61.5619   68.9542 C.3         1 HUX      -0.0218
      9 C7          2.2055   62.6495   69.6194 C.2         1 HUX      -0.1032
     10 C8          2.6798   63.3182   70.6961 C.2         1 HUX      -0.0790
     11 C9          4.0451   63.0806   71.1956 C.3         1 HUX      -0.0183
     12 C10         2.1215   65.7548   70.6121 C.3         1 HUX      -0.0568
     13 C11         4.7431   61.7924   70.6435 C.3         1 HUX       0.0005
     14 C12         4.4626   61.7173   69.1136 C.3         1 HUX      -0.0333
     15 C13         4.2445   60.5694   71.3694 C.ar        1 HUX       0.0103
     16 C14         4.7664   60.1549   72.6287 C.ar        1 HUX       0.0669
     17 C15         4.2156   59.0280   73.3015 C.ar        1 HUX       0.0195
     18 C16         4.6589   58.5579   74.5644 C.ar        1 HUX      -0.0525
     19 C17         4.0678   57.4344   75.1717 C.ar        1 HUX      -0.0494
     20 C18         1.8811   64.3904   71.2966 C.3         1 HUX      -0.0310
     21 CL1         2.3359   55.3774   75.2430 Cl          1 HUX      -0.0699
     22 H1          6.1996   61.5974   72.7722 H           1 HUX       0.1779
     23 H2          6.1308   60.5443   74.0567 H           1 HUX       0.1779
     24 H3          1.7953   56.7087   72.8077 H           1 HUX       0.0596
     25 H4          1.4123   60.1793   69.6918 H           1 HUX       0.0470
     26 H5          2.7274   59.3969   68.8182 H           1 HUX       0.0470
     27 H6          2.6792   61.5908   67.8882 H           1 HUX       0.0401
     28 H7          1.2856   62.8446   69.2915 H           1 HUX       0.0247
     29 H8          4.0331   63.0334   72.2876 H           1 HUX       0.0431
     30 H9          4.6534   63.9468   70.9197 H           1 HUX       0.0431
     31 H10         1.4581   66.5058   71.0443 H           1 HUX       0.0251
     32 H11         1.9209   65.6906   69.5405 H           1 HUX       0.0251
     33 H12         3.1529   66.0785   70.7623 H           1 HUX       0.0251
     34 H13         5.8265   61.8816   70.7682 H           1 HUX       0.0444
     35 H14         4.8027   62.6286   68.6121 H           1 HUX       0.0305
     36 H15         4.9875   60.8684   68.6638 H           1 HUX       0.0305
     37 H16         5.4185   59.0234   75.0644 H           1 HUX       0.0636
     38 H17         4.4103   57.1136   76.0808 H           1 HUX       0.0590
     39 H18         2.1157   64.4849   72.3599 H           1 HUX       0.0408
     40 H19         0.8139   64.1528   71.2417 H           1 HUX       0.0408
@<TRIPOS>BOND
     1     1     5  ar
     2     1     6  ar
     3     6    15  ar
     4     6     7   1
     5     7     8   1
     6     8    14   1
     7     8     9   1
     8     9    10   2
     9    10    20   1
    10    10    11   1
    11    11    13   1
    12    13    15   1
    13    13    14   1
    14    15    16  ar
    15    16     2   1
    16    16    17  ar
    17    17    18  ar
    18    17     5  ar
    19     5     4  ar
    20     4     3  ar
    21     3    19  ar
    22    18    19  ar
    23    20    12   1
    24     3    21   1
    25     2    22   1
    26     2    23   1
    27     4    24   1
    28     7    25   1
    29     7    26   1
    30     8    27   1
    31     9    28   1
    32    11    29   1
    33    11    30   1
    34    12    31   1
    35    12    32   1
    36    12    33   1
    37    13    34   1
    38    14    35   1
    39    14    36   1
    40    18    37   1
    41    19    38   1
    42    20    39   1
    43    20    40   1
@<TRIPOS>SUBSTRUCTURE
     1  HUX      3

