@<TRIPOS>MOLECULE
1e66_ligand_037
    40    43
SMALL
GAST_HUCK
****
This file was generated by PARSER (from files_GN.cpp)

@<TRIPOS>ATOM
      1 N1          3.2525   61.4956   73.2486 N.ar        1 HUX      -0.3279
      2 N2          1.1011   64.7880   74.4759 N.pl3       1 HUX      -0.3283
      3 C1          2.7261   60.5036   76.7371 C.ar        1 HUX       0.0385
      4 C2          3.1505   60.4753   75.3964 C.ar        1 HUX      -0.0382
      5 C3          2.8378   61.5467   74.5360 C.ar        1 HUX       0.0183
      6 C4          3.0072   62.4721   72.3420 C.ar        1 HUX       0.0124
      7 C5          3.5271   62.2620   70.9637 C.3         1 HUX      -0.0021
      8 C6          2.9896   63.2983   69.9281 C.3         1 HUX      -0.0218
      9 C7          1.6133   62.9702   69.5429 C.2         1 HUX      -0.1032
     10 C8          0.5146   63.4955   70.1327 C.2         1 HUX      -0.0790
     11 C9          0.6417   64.6022   71.0935 C.3         1 HUX      -0.0183
     12 C10        -1.6265   62.3653   70.8517 C.3         1 HUX      -0.0568
     13 C11         2.0594   64.7348   71.7259 C.3         1 HUX       0.0005
     14 C12         3.0928   64.7123   70.5623 C.3         1 HUX      -0.0333
     15 C13         2.3014   63.6429   72.7380 C.ar        1 HUX       0.0103
     16 C14         1.8232   63.7170   74.0774 C.ar        1 HUX       0.0669
     17 C15         2.0954   62.6667   74.9972 C.ar        1 HUX       0.0195
     18 C16         1.6713   62.6682   76.3506 C.ar        1 HUX      -0.0525
     19 C17         1.9854   61.6004   77.2105 C.ar        1 HUX      -0.0494
     20 C18        -0.8336   63.0809   69.7307 C.3         1 HUX      -0.0310
     21 CL1         3.1112   59.2240   77.7751 Cl          1 HUX      -0.0699
     22 H1          0.8812   65.4915   73.8488 H           1 HUX       0.1779
     23 H2          0.7828   64.8540   75.3872 H           1 HUX       0.1779
     24 H3          3.6876   59.6794   75.0451 H           1 HUX       0.0596
     25 H4          3.2776   61.2507   70.6311 H           1 HUX       0.0470
     26 H5          4.6167   62.3292   71.0047 H           1 HUX       0.0470
     27 H6          3.6192   63.2734   69.0363 H           1 HUX       0.0401
     28 H7          1.5024   62.2458   68.8714 H           1 HUX       0.0247
     29 H8          0.4139   65.5264   70.5551 H           1 HUX       0.0431
     30 H9         -0.1013   64.5186   71.8910 H           1 HUX       0.0431
     31 H10        -2.6409   62.1594   70.5009 H           1 HUX       0.0251
     32 H11        -1.7074   62.9799   71.7493 H           1 HUX       0.0251
     33 H12        -1.1479   61.4206   71.1260 H           1 HUX       0.0251
     34 H13         2.1380   65.7123   72.2006 H           1 HUX       0.0444
     35 H14         2.8629   65.4843   69.8207 H           1 HUX       0.0305
     36 H15         4.1018   64.9080   70.9378 H           1 HUX       0.0305
     37 H16         1.1309   63.4491   76.7310 H           1 HUX       0.0636
     38 H17         1.6706   61.6267   78.1844 H           1 HUX       0.0590
     39 H18        -0.8073   62.3985   68.8761 H           1 HUX       0.0408
     40 H19        -1.3930   63.9622   69.4056 H           1 HUX       0.0408
@<TRIPOS>BOND
     1     1     5  ar
     2     1     6  ar
     3     6    15  ar
     4     6     7   1
     5     7     8   1
     6     8    14   1
     7     8     9   1
     8     9    10   2
     9    10    20   1
    10    10    11   1
    11    11    13   1
    12    13    15   1
    13    13    14   1
    14    15    16  ar
    15    16     2   1
    16    16    17  ar
    17    17    18  ar
    18    17     5  ar
    19     5     4  ar
    20     4     3  ar
    21     3    19  ar
    22    18    19  ar
    23    20    12   1
    24     3    21   1
    25     2    22   1
    26     2    23   1
    27     4    24   1
    28     7    25   1
    29     7    26   1
    30     8    27   1
    31     9    28   1
    32    11    29   1
    33    11    30   1
    34    12    31   1
    35    12    32   1
    36    12    33   1
    37    13    34   1
    38    14    35   1
    39    14    36   1
    40    18    37   1
    41    19    38   1
    42    20    39   1
    43    20    40   1
@<TRIPOS>SUBSTRUCTURE
     1  HUX      3

