@<TRIPOS>MOLECULE
1e66_ligand_050
    40    43
SMALL
GAST_HUCK
****
This file was generated by PARSER (from files_GN.cpp)

@<TRIPOS>ATOM
      1 N1          2.3166   65.7386   63.9220 N.ar        1 HUX      -0.3279
      2 N2          5.3512   68.2866   65.0501 N.pl3       1 HUX      -0.3283
      3 C1          5.0970   63.3784   63.6280 C.ar        1 HUX       0.0385
      4 C2          3.7917   63.8986   63.6390 C.ar        1 HUX      -0.0382
      5 C3          3.5753   65.2481   63.9738 C.ar        1 HUX       0.0183
      6 C4          2.0032   67.0232   64.2060 C.ar        1 HUX       0.0124
      7 C5          0.5739   67.4069   64.0837 C.3         1 HUX      -0.0021
      8 C6          0.2494   68.8369   64.6078 C.3         1 HUX      -0.0218
      9 C7          0.1253   68.8418   66.0694 C.2         1 HUX      -0.1032
     10 C8          1.1326   69.1686   66.9141 C.2         1 HUX      -0.0790
     11 C9          2.4500   69.5779   66.3997 C.3         1 HUX      -0.0183
     12 C10         1.1666   67.7945   69.0083 C.3         1 HUX      -0.0568
     13 C11         2.6680   69.3727   64.8633 C.3         1 HUX       0.0005
     14 C12         1.3681   69.7965   64.1220 C.3         1 HUX      -0.0333
     15 C13         3.0287   67.9426   64.5633 C.ar        1 HUX       0.0103
     16 C14         4.3612   67.4544   64.6612 C.ar        1 HUX       0.0669
     17 C15         4.6496   66.0962   64.3514 C.ar        1 HUX       0.0195
     18 C16         5.9484   65.5332   64.3895 C.ar        1 HUX      -0.0525
     19 C17         6.1715   64.1935   64.0100 C.ar        1 HUX      -0.0494
     20 C18         0.9124   69.1727   68.3639 C.3         1 HUX      -0.0310
     21 CL1         5.3729   61.7833   63.1314 Cl          1 HUX      -0.0699
     22 H1          5.1567   69.2053   65.2747 H           1 HUX       0.1779
     23 H2          6.2624   67.9672   65.1194 H           1 HUX       0.1779
     24 H3          3.0025   63.2995   63.3974 H           1 HUX       0.0596
     25 H4         -0.0271   66.6751   64.6239 H           1 HUX       0.0470
     26 H5          0.2949   67.3421   63.0275 H           1 HUX       0.0470
     27 H6         -0.7031   69.1684   64.1820 H           1 HUX       0.0401
     28 H7         -0.7424   68.5330   66.4490 H           1 HUX       0.0247
     29 H8          3.2284   69.0355   66.9433 H           1 HUX       0.0431
     30 H9          2.5853   70.6349   66.6311 H           1 HUX       0.0431
     31 H10         0.9482   67.8443   70.0791 H           1 HUX       0.0251
     32 H11         2.2067   67.4895   68.8840 H           1 HUX       0.0251
     33 H12         0.5180   67.0372   68.5628 H           1 HUX       0.0251
     34 H13         3.4635   70.0408   64.5200 H           1 HUX       0.0444
     35 H14         1.5032   69.7306   63.0369 H           1 HUX       0.0305
     36 H15         1.1064   70.8285   64.3550 H           1 HUX       0.0305
     37 H16         6.7520   66.0923   64.6767 H           1 HUX       0.0636
     38 H17         7.1238   63.8202   64.0009 H           1 HUX       0.0590
     39 H18        -0.1122   69.4785   68.5988 H           1 HUX       0.0408
     40 H19         1.5667   69.9098   68.8406 H           1 HUX       0.0408
@<TRIPOS>BOND
     1     1     5  ar
     2     1     6  ar
     3     6    15  ar
     4     6     7   1
     5     7     8   1
     6     8    14   1
     7     8     9   1
     8     9    10   2
     9    10    20   1
    10    10    11   1
    11    11    13   1
    12    13    15   1
    13    13    14   1
    14    15    16  ar
    15    16     2   1
    16    16    17  ar
    17    17    18  ar
    18    17     5  ar
    19     5     4  ar
    20     4     3  ar
    21     3    19  ar
    22    18    19  ar
    23    20    12   1
    24     3    21   1
    25     2    22   1
    26     2    23   1
    27     4    24   1
    28     7    25   1
    29     7    26   1
    30     8    27   1
    31     9    28   1
    32    11    29   1
    33    11    30   1
    34    12    31   1
    35    12    32   1
    36    12    33   1
    37    13    34   1
    38    14    35   1
    39    14    36   1
    40    18    37   1
    41    19    38   1
    42    20    39   1
    43    20    40   1
@<TRIPOS>SUBSTRUCTURE
     1  HUX      3

