@<TRIPOS>MOLECULE
1f8b_ligand_020
    36    36
SMALL
GAST_HUCK
****
This file was generated by PARSER (from files_GN.cpp)

@<TRIPOS>ATOM
      1 C1         29.6003   17.1567   65.6712 C.2         1 DAN       0.0809
      2 C2         28.5249   17.7603   65.0382 C.2         1 DAN       0.1088
      3 C3         27.6751   17.0714   64.2362 C.2         1 DAN      -0.0276
      4 C4         26.6252   17.7194   63.4728 C.3         1 DAN       0.1003
      5 C5         26.3032   19.1723   63.9390 C.3         1 DAN       0.1064
      6 C6         27.6174   19.9225   64.3586 C.3         1 DAN       0.1321
      7 C7         28.4583   20.6447   63.2309 C.3         1 DAN       0.1154
      8 C8         29.9105   20.1336   62.9093 C.3         1 DAN       0.1068
      9 C9         30.0709   19.1045   61.7535 C.3         1 DAN       0.0727
     10 C10        24.6826   20.1125   65.5475 C.2         1 DAN       0.1734
     11 C11        23.8745   19.8666   66.7151 C.3         1 DAN       0.0257
     12 N5         25.3940   19.1093   65.0518 N.am        1 DAN      -0.2770
     13 O1A        29.6259   15.8379   65.9659 O.co2       1 DAN      -0.5623
     14 O1B        30.7301   17.8538   65.9332 O.co2       1 DAN      -0.5623
     15 O4         26.9790   17.6996   62.0907 O.3         1 DAN      -0.3807
     16 O6         28.3820   19.0863   65.2589 O.3         1 DAN      -0.3189
     17 O7         27.7033   20.8156   62.0317 O.3         1 DAN      -0.3861
     18 O8         30.7199   21.2659   62.5859 O.3         1 DAN      -0.3869
     19 O9         29.7137   17.7934   62.1436 O.3         1 DAN      -0.3924
     20 O10        24.7078   21.2322   65.0478 O.2         1 DAN      -0.3974
     21 H1         27.8037   16.0959   64.0925 H           1 DAN       0.0480
     22 H2         25.7251   17.1054   63.5545 H           1 DAN       0.0740
     23 H3         25.7962   19.6926   63.1210 H           1 DAN       0.0632
     24 H4         27.3031   20.7352   65.0207 H           1 DAN       0.0697
     25 H5         28.5911   21.6741   63.5840 H           1 DAN       0.0650
     26 H6         30.3588   19.7184   63.8181 H           1 DAN       0.0643
     27 H7         31.1045   19.0658   61.4160 H           1 DAN       0.0584
     28 H8         29.4603   19.3768   60.8967 H           1 DAN       0.0584
     29 H9         23.3496   20.7715   67.0320 H           1 DAN       0.0467
     30 H10        24.5080   19.5310   67.5387 H           1 DAN       0.0467
     31 H11        23.1361   19.0932   66.4972 H           1 DAN       0.0467
     32 H12        25.2952   18.2467   65.4884 H           1 DAN       0.1858
     33 H13        27.5529   18.4851   61.9621 H           1 DAN       0.2127
     34 H14        28.2461   21.3884   61.4451 H           1 DAN       0.2100
     35 H15        30.5439   21.4502   61.6435 H           1 DAN       0.2100
     36 H16        29.8695   17.2412   61.3392 H           1 DAN       0.2095
@<TRIPOS>BOND
     1     1    14  ar
     2     1    13  ar
     3     1     2   1
     4     2    16   1
     5     2     3   2
     6     3     4   1
     7     4    15   1
     8     4     5   1
     9     5    12   1
    10     5     6   1
    11     6    16   1
    12     6     7   1
    13     7    17   1
    14     7     8   1
    15     8    18   1
    16     8     9   1
    17     9    19   1
    18    12    10  am
    19    10    20   2
    20    10    11   1
    21     3    21   1
    22     4    22   1
    23     5    23   1
    24     6    24   1
    25     7    25   1
    26     8    26   1
    27     9    27   1
    28     9    28   1
    29    11    29   1
    30    11    30   1
    31    11    31   1
    32    12    32   1
    33    15    33   1
    34    17    34   1
    35    18    35   1
    36    19    36   1
@<TRIPOS>SUBSTRUCTURE
     1  DAN      1

