@<TRIPOS>MOLECULE
1f8b_ligand_022
    36    36
SMALL
GAST_HUCK
****
This file was generated by PARSER (from files_GN.cpp)

@<TRIPOS>ATOM
      1 C1         21.2386   17.5808   69.0810 C.2         1 DAN       0.0809
      2 C2         22.2357   18.4894   68.7379 C.2         1 DAN       0.1088
      3 C3         22.8302   19.2703   69.6611 C.2         1 DAN      -0.0276
      4 C4         23.9187   20.1755   69.3409 C.3         1 DAN       0.1003
      5 C5         24.1358   20.4098   67.8128 C.3         1 DAN       0.1064
      6 C6         23.8357   19.0905   67.0260 C.3         1 DAN       0.1321
      7 C7         23.8815   19.2588   65.4636 C.3         1 DAN       0.1154
      8 C8         24.3811   18.0055   64.6755 C.3         1 DAN       0.1068
      9 C9         23.3015   16.9692   64.2778 C.3         1 DAN       0.0727
     10 C10        25.9635   21.6245   66.6659 C.2         1 DAN       0.1734
     11 C11        27.3851   21.8813   66.6102 C.3         1 DAN       0.0257
     12 N5         25.4967   20.8388   67.6278 N.am        1 DAN      -0.2770
     13 O1A        20.6070   16.8418   68.1430 O.co2       1 DAN      -0.5623
     14 O1B        20.8955   17.3365   70.3685 O.co2       1 DAN      -0.5623
     15 O4         23.6922   21.4213   70.0003 O.3         1 DAN      -0.3807
     16 O6         22.5311   18.5960   67.4209 O.3         1 DAN      -0.3189
     17 O7         22.6106   19.7006   64.9812 O.3         1 DAN      -0.3861
     18 O8         25.0227   18.4235   63.4670 O.3         1 DAN      -0.3869
     19 O9         22.4203   16.6382   65.3441 O.3         1 DAN      -0.3924
     20 O10        25.2370   22.0687   65.7855 O.2         1 DAN      -0.3974
     21 H1         22.6019   19.1628   70.6242 H           1 DAN       0.0480
     22 H2         24.8141   19.7263   69.7820 H           1 DAN       0.0740
     23 H3         23.4259   21.1766   67.4772 H           1 DAN       0.0632
     24 H4         24.5869   18.3532   67.3351 H           1 DAN       0.0697
     25 H5         24.5935   20.0477   65.2376 H           1 DAN       0.0650
     26 H6         25.1454   17.4914   65.2641 H           1 DAN       0.0643
     27 H7         23.7938   16.0521   63.9421 H           1 DAN       0.0584
     28 H8         22.7099   17.3557   63.4417 H           1 DAN       0.0584
     29 H9         27.6573   22.4110   65.6918 H           1 DAN       0.0467
     30 H10        27.9266   20.9336   66.6384 H           1 DAN       0.0467
     31 H11        27.6919   22.4873   67.4658 H           1 DAN       0.0467
     32 H12        26.1572   20.4487   68.2249 H           1 DAN       0.1858
     33 H13        24.5145   21.9360   69.8582 H           1 DAN       0.2127
     34 H14        22.7282   19.8600   64.0203 H           1 DAN       0.2100
     35 H15        24.3410   18.9095   62.9540 H           1 DAN       0.2100
     36 H16        21.7088   16.1263   64.9050 H           1 DAN       0.2095
@<TRIPOS>BOND
     1     1    14  ar
     2     1    13  ar
     3     1     2   1
     4     2    16   1
     5     2     3   2
     6     3     4   1
     7     4    15   1
     8     4     5   1
     9     5    12   1
    10     5     6   1
    11     6    16   1
    12     6     7   1
    13     7    17   1
    14     7     8   1
    15     8    18   1
    16     8     9   1
    17     9    19   1
    18    12    10  am
    19    10    20   2
    20    10    11   1
    21     3    21   1
    22     4    22   1
    23     5    23   1
    24     6    24   1
    25     7    25   1
    26     8    26   1
    27     9    27   1
    28     9    28   1
    29    11    29   1
    30    11    30   1
    31    11    31   1
    32    12    32   1
    33    15    33   1
    34    17    34   1
    35    18    35   1
    36    19    36   1
@<TRIPOS>SUBSTRUCTURE
     1  DAN      1

