@<TRIPOS>MOLECULE
1f8b_ligand_029
    36    36
SMALL
GAST_HUCK
****
This file was generated by PARSER (from files_GN.cpp)

@<TRIPOS>ATOM
      1 C1         27.0106   14.0807   61.5812 C.2         1 DAN       0.0809
      2 C2         27.5424   15.2979   61.9471 C.2         1 DAN       0.1088
      3 C3         27.6364   15.7100   63.2302 C.2         1 DAN      -0.0276
      4 C4         28.2180   17.0071   63.5182 C.3         1 DAN       0.1003
      5 C5         27.6608   18.0763   62.5294 C.3         1 DAN       0.1064
      6 C6         27.7358   17.5207   61.0488 C.3         1 DAN       0.1321
      7 C7         26.4633   17.8393   60.2010 C.3         1 DAN       0.1154
      8 C8         26.5773   17.6720   58.6574 C.3         1 DAN       0.1068
      9 C9         27.6016   18.6349   57.9983 C.3         1 DAN       0.0727
     10 C10        28.0785   20.5041   62.2647 C.2         1 DAN       0.1734
     11 C11        28.9416   21.6136   62.5800 C.3         1 DAN       0.0257
     12 N5         28.3708   19.3064   62.7430 N.am        1 DAN      -0.2770
     13 O1A        26.7255   13.8163   60.2878 O.co2       1 DAN      -0.5623
     14 O1B        26.7542   13.1047   62.4825 O.co2       1 DAN      -0.5623
     15 O4         27.9867   17.3829   64.8810 O.3         1 DAN      -0.3807
     16 O6         28.0270   16.0990   60.9711 O.3         1 DAN      -0.3189
     17 O7         25.3585   17.0779   60.6766 O.3         1 DAN      -0.3861
     18 O8         26.8890   16.3281   58.2820 O.3         1 DAN      -0.3869
     19 O9         27.3425   18.8052   56.6049 O.3         1 DAN      -0.3924
     20 O10        27.0653   20.7129   61.6074 O.2         1 DAN      -0.3974
     21 H1         27.2546   15.1693   63.9735 H           1 DAN       0.0480
     22 H2         29.3010   16.9265   63.3849 H           1 DAN       0.0740
     23 H3         26.6173   18.2428   62.8121 H           1 DAN       0.0632
     24 H4         28.5908   18.0028   60.5674 H           1 DAN       0.0697
     25 H5         26.2038   18.8821   60.3689 H           1 DAN       0.0650
     26 H6         25.5956   17.9048   58.2298 H           1 DAN       0.0643
     27 H7         28.6166   18.2518   58.1169 H           1 DAN       0.0584
     28 H8         27.5559   19.6229   58.4587 H           1 DAN       0.0584
     29 H9         28.6431   22.5095   62.0316 H           1 DAN       0.0467
     30 H10        29.9708   21.3749   62.3056 H           1 DAN       0.0467
     31 H11        28.8929   21.8317   63.6482 H           1 DAN       0.0467
     32 H12        29.1572   19.2580   63.3044 H           1 DAN       0.1858
     33 H13        27.0128   17.4341   64.9799 H           1 DAN       0.2127
     34 H14        24.5837   17.6478   60.4952 H           1 DAN       0.2100
     35 H15        26.0246   15.8573   58.2414 H           1 DAN       0.2100
     36 H16        26.9134   17.9779   56.2992 H           1 DAN       0.2095
@<TRIPOS>BOND
     1     1    14  ar
     2     1    13  ar
     3     1     2   1
     4     2    16   1
     5     2     3   2
     6     3     4   1
     7     4    15   1
     8     4     5   1
     9     5    12   1
    10     5     6   1
    11     6    16   1
    12     6     7   1
    13     7    17   1
    14     7     8   1
    15     8    18   1
    16     8     9   1
    17     9    19   1
    18    12    10  am
    19    10    20   2
    20    10    11   1
    21     3    21   1
    22     4    22   1
    23     5    23   1
    24     6    24   1
    25     7    25   1
    26     8    26   1
    27     9    27   1
    28     9    28   1
    29    11    29   1
    30    11    30   1
    31    11    31   1
    32    12    32   1
    33    15    33   1
    34    17    34   1
    35    18    35   1
    36    19    36   1
@<TRIPOS>SUBSTRUCTURE
     1  DAN      1

