@<TRIPOS>MOLECULE
1f8b_ligand_075
    36    36
SMALL
GAST_HUCK
****
This file was generated by PARSER (from files_GN.cpp)

@<TRIPOS>ATOM
      1 C1         29.6550   16.1194   64.5418 C.2         1 DAN       0.0809
      2 C2         28.5023   16.2657   63.8294 C.2         1 DAN       0.1088
      3 C3         27.4412   16.9615   64.2993 C.2         1 DAN      -0.0276
      4 C4         26.2292   17.0927   63.5208 C.3         1 DAN       0.1003
      5 C5         26.4704   17.0523   61.9613 C.3         1 DAN       0.1064
      6 C6         27.8146   16.3353   61.5543 C.3         1 DAN       0.1321
      7 C7         27.7422   15.4224   60.2922 C.3         1 DAN       0.1154
      8 C8         26.7653   14.2015   60.2607 C.3         1 DAN       0.1068
      9 C9         27.0150   13.1094   61.3494 C.3         1 DAN       0.0727
     10 C10        27.1341   19.4091   61.4846 C.2         1 DAN       0.1734
     11 C11        26.8424   20.5879   60.7194 C.3         1 DAN       0.0257
     12 N5         26.3396   18.3476   61.3389 N.am        1 DAN      -0.2770
     13 O1A        29.6546   15.5958   65.7938 O.co2       1 DAN      -0.5623
     14 O1B        30.7075   16.9470   64.2337 O.co2       1 DAN      -0.5623
     15 O4         25.3648   16.0280   63.9241 O.3         1 DAN      -0.3807
     16 O6         28.4212   15.6026   62.6492 O.3         1 DAN      -0.3189
     17 O7         27.4484   16.2438   59.1554 O.3         1 DAN      -0.3861
     18 O8         25.3868   14.5670   60.2959 O.3         1 DAN      -0.3869
     19 O9         26.7942   13.5885   62.6671 O.3         1 DAN      -0.3924
     20 O10        28.1146   19.3894   62.2357 O.2         1 DAN      -0.3974
     21 H1         27.5011   17.4373   65.1708 H           1 DAN       0.0480
     22 H2         25.7221   18.0238   63.7945 H           1 DAN       0.0740
     23 H3         25.6354   16.5038   61.5435 H           1 DAN       0.0632
     24 H4         28.5632   17.1059   61.3096 H           1 DAN       0.0697
     25 H5         28.7462   15.0243   60.1323 H           1 DAN       0.0650
     26 H6         26.9207   13.7012   59.2881 H           1 DAN       0.0643
     27 H7         28.0357   12.7430   61.2680 H           1 DAN       0.0584
     28 H8         26.3262   12.2802   61.1761 H           1 DAN       0.0584
     29 H9         27.5348   21.4034   60.9557 H           1 DAN       0.0467
     30 H10        25.8260   20.9286   60.9311 H           1 DAN       0.0467
     31 H11        26.9259   20.3595   59.6501 H           1 DAN       0.0467
     32 H12        25.5802   18.4587   60.7513 H           1 DAN       0.1858
     33 H13        24.4823   16.2587   63.5489 H           1 DAN       0.2127
     34 H14        28.1081   16.9682   59.1719 H           1 DAN       0.2100
     35 H15        25.1951   14.9302   59.4091 H           1 DAN       0.2100
     36 H16        25.8542   13.8674   62.6958 H           1 DAN       0.2095
@<TRIPOS>BOND
     1     1    14  ar
     2     1    13  ar
     3     1     2   1
     4     2    16   1
     5     2     3   2
     6     3     4   1
     7     4    15   1
     8     4     5   1
     9     5    12   1
    10     5     6   1
    11     6    16   1
    12     6     7   1
    13     7    17   1
    14     7     8   1
    15     8    18   1
    16     8     9   1
    17     9    19   1
    18    12    10  am
    19    10    20   2
    20    10    11   1
    21     3    21   1
    22     4    22   1
    23     5    23   1
    24     6    24   1
    25     7    25   1
    26     8    26   1
    27     9    27   1
    28     9    28   1
    29    11    29   1
    30    11    30   1
    31    11    31   1
    32    12    32   1
    33    15    33   1
    34    17    34   1
    35    18    35   1
    36    19    36   1
@<TRIPOS>SUBSTRUCTURE
     1  DAN      1

