@<TRIPOS>MOLECULE
1f8b_ligand_066
    36    36
SMALL
GAST_HUCK
****
This file was generated by PARSER (from files_GN.cpp)

@<TRIPOS>ATOM
      1 C1         24.0718   20.6958   66.1753 C.2         1 DAN       0.0809
      2 C2         23.8290   21.3150   67.3897 C.2         1 DAN       0.1088
      3 C3         24.3117   22.5364   67.7053 C.2         1 DAN      -0.0276
      4 C4         23.8947   23.2418   68.9087 C.3         1 DAN       0.1003
      5 C5         23.1847   22.3328   69.9722 C.3         1 DAN       0.1064
      6 C6         22.2772   21.2838   69.2434 C.3         1 DAN       0.1321
      7 C7         21.6377   20.2145   70.1905 C.3         1 DAN       0.1154
      8 C8         20.9301   18.9829   69.5230 C.3         1 DAN       0.1068
      9 C9         19.5607   19.2967   68.8666 C.3         1 DAN       0.0727
     10 C10        22.8971   23.9097   71.8476 C.2         1 DAN       0.1734
     11 C11        21.9729   24.6684   72.6566 C.3         1 DAN       0.0257
     12 N5         22.4190   23.1102   70.9014 N.am        1 DAN      -0.2770
     13 O1A        25.1828   20.9641   65.4303 O.co2       1 DAN      -0.5623
     14 O1B        23.0891   19.9638   65.6045 O.co2       1 DAN      -0.5623
     15 O4         25.0426   23.8870   69.4614 O.3         1 DAN      -0.3807
     16 O6         23.0827   20.5972   68.2634 O.3         1 DAN      -0.3189
     17 O7         22.6405   19.7023   71.0739 O.3         1 DAN      -0.3861
     18 O8         21.7653   18.3485   68.5532 O.3         1 DAN      -0.3869
     19 O9         18.5877   19.6677   69.8475 O.3         1 DAN      -0.3924
     20 O10        24.1003   24.0141   72.0583 O.2         1 DAN      -0.3974
     21 H1         24.8472   23.0470   67.0363 H           1 DAN       0.0480
     22 H2         23.2075   24.0305   68.5858 H           1 DAN       0.0740
     23 H3         23.9580   21.7753   70.5082 H           1 DAN       0.0632
     24 H4         21.4695   21.8188   68.7345 H           1 DAN       0.0697
     25 H5         20.9002   20.7171   70.8125 H           1 DAN       0.0650
     26 H6         20.7379   18.2372   70.3023 H           1 DAN       0.0643
     27 H7         19.1861   18.4132   68.3399 H           1 DAN       0.0584
     28 H8         19.6594   20.1052   68.1450 H           1 DAN       0.0584
     29 H9         22.4912   25.2864   73.3929 H           1 DAN       0.0467
     30 H10        21.2983   23.9945   73.1879 H           1 DAN       0.0467
     31 H11        21.3823   25.3266   72.0149 H           1 DAN       0.0467
     32 H12        21.4540   23.0386   70.8416 H           1 DAN       0.1858
     33 H13        25.6390   23.1646   69.7565 H           1 DAN       0.2127
     34 H14        22.1439   19.2932   71.8162 H           1 DAN       0.2100
     35 H15        22.5675   18.0620   69.0388 H           1 DAN       0.2100
     36 H16        18.4124   18.8589   70.3771 H           1 DAN       0.2095
@<TRIPOS>BOND
     1     1    14  ar
     2     1    13  ar
     3     1     2   1
     4     2    16   1
     5     2     3   2
     6     3     4   1
     7     4    15   1
     8     4     5   1
     9     5    12   1
    10     5     6   1
    11     6    16   1
    12     6     7   1
    13     7    17   1
    14     7     8   1
    15     8    18   1
    16     8     9   1
    17     9    19   1
    18    12    10  am
    19    10    20   2
    20    10    11   1
    21     3    21   1
    22     4    22   1
    23     5    23   1
    24     6    24   1
    25     7    25   1
    26     8    26   1
    27     9    27   1
    28     9    28   1
    29    11    29   1
    30    11    30   1
    31    11    31   1
    32    12    32   1
    33    15    33   1
    34    17    34   1
    35    18    35   1
    36    19    36   1
@<TRIPOS>SUBSTRUCTURE
     1  DAN      1

