@<TRIPOS>MOLECULE
1f8b_ligand_049
    36    36
SMALL
GAST_HUCK
****
This file was generated by PARSER (from files_GN.cpp)

@<TRIPOS>ATOM
      1 C1         29.7664   16.9428   62.5148 C.2         1 DAN       0.0809
      2 C2         28.7626   17.9110   62.6083 C.2         1 DAN       0.1088
      3 C3         27.9464   18.1950   61.5657 C.2         1 DAN      -0.0276
      4 C4         26.9690   19.2618   61.6015 C.3         1 DAN       0.1003
      5 C5         26.7692   19.9201   63.0095 C.3         1 DAN       0.1064
      6 C6         28.0703   19.8603   63.8687 C.3         1 DAN       0.1321
      7 C7         29.1400   20.9660   63.5756 C.3         1 DAN       0.1154
      8 C8         30.0584   21.3232   64.7846 C.3         1 DAN       0.1068
      9 C9         29.3734   22.1460   65.9124 C.3         1 DAN       0.0727
     10 C10        24.7137   19.7650   64.3965 C.2         1 DAN       0.1734
     11 C11        23.8348   18.8914   65.1420 C.3         1 DAN       0.0257
     12 N5         25.7227   19.2263   63.7255 N.am        1 DAN      -0.2770
     13 O1A        30.6882   16.8269   63.4995 O.co2       1 DAN      -0.5623
     14 O1B        29.8730   16.0930   61.4554 O.co2       1 DAN      -0.5623
     15 O4         27.3222   20.2459   60.6323 O.3         1 DAN      -0.3807
     16 O6         28.6288   18.5267   63.8154 O.3         1 DAN      -0.3189
     17 O7         29.9832   20.5855   62.4877 O.3         1 DAN      -0.3861
     18 O8         30.6231   20.1293   65.3440 O.3         1 DAN      -0.3869
     19 O9         28.5152   23.1652   65.3960 O.3         1 DAN      -0.3924
     20 O10        24.5320   20.9788   64.4565 O.2         1 DAN      -0.3974
     21 H1         28.0689   17.7146   60.6962 H           1 DAN       0.0480
     22 H2         26.0175   18.8393   61.2606 H           1 DAN       0.0740
     23 H3         26.4801   20.9639   62.8587 H           1 DAN       0.0632
     24 H4         27.7494   19.9987   64.9020 H           1 DAN       0.0697
     25 H5         28.6368   21.8847   63.2845 H           1 DAN       0.0650
     26 H6         30.8999   21.9175   64.4223 H           1 DAN       0.0643
     27 H7         30.1340   22.6341   66.5356 H           1 DAN       0.0584
     28 H8         28.7767   21.5001   66.5611 H           1 DAN       0.0584
     29 H9         23.0975   19.4602   65.7180 H           1 DAN       0.0467
     30 H10        24.4148   18.2816   65.8450 H           1 DAN       0.0467
     31 H11        23.3017   18.2306   64.4513 H           1 DAN       0.0467
     32 H12        25.8060   18.2570   63.7894 H           1 DAN       0.1858
     33 H13        28.0210   20.7895   61.0441 H           1 DAN       0.2127
     34 H14        29.8485   21.2552   61.7875 H           1 DAN       0.2100
     35 H15        31.3077   20.4259   65.9871 H           1 DAN       0.2100
     36 H16        28.1177   23.6184   66.1702 H           1 DAN       0.2095
@<TRIPOS>BOND
     1     1    14  ar
     2     1    13  ar
     3     1     2   1
     4     2    16   1
     5     2     3   2
     6     3     4   1
     7     4    15   1
     8     4     5   1
     9     5    12   1
    10     5     6   1
    11     6    16   1
    12     6     7   1
    13     7    17   1
    14     7     8   1
    15     8    18   1
    16     8     9   1
    17     9    19   1
    18    12    10  am
    19    10    20   2
    20    10    11   1
    21     3    21   1
    22     4    22   1
    23     5    23   1
    24     6    24   1
    25     7    25   1
    26     8    26   1
    27     9    27   1
    28     9    28   1
    29    11    29   1
    30    11    30   1
    31    11    31   1
    32    12    32   1
    33    15    33   1
    34    17    34   1
    35    18    35   1
    36    19    36   1
@<TRIPOS>SUBSTRUCTURE
     1  DAN      1

