@<TRIPOS>MOLECULE
1f8b_ligand_060
    36    36
SMALL
GAST_HUCK
****
This file was generated by PARSER (from files_GN.cpp)

@<TRIPOS>ATOM
      1 C1         28.2780   22.0880   66.3495 C.2         1 DAN       0.0809
      2 C2         27.4537   21.0711   66.8092 C.2         1 DAN       0.1088
      3 C3         27.8490   20.1749   67.7455 C.2         1 DAN      -0.0276
      4 C4         26.9798   19.1226   68.2371 C.3         1 DAN       0.1003
      5 C5         25.8574   18.7553   67.2187 C.3         1 DAN       0.1064
      6 C6         25.2126   20.0764   66.6802 C.3         1 DAN       0.1321
      7 C7         24.1759   19.9099   65.5057 C.3         1 DAN       0.1154
      8 C8         24.6998   19.0674   64.2743 C.3         1 DAN       0.1068
      9 C9         23.7389   17.9474   63.7688 C.3         1 DAN       0.0727
     10 C10        24.1806   17.8281   68.8324 C.2         1 DAN       0.1734
     11 C11        23.3646   16.6797   69.1440 C.3         1 DAN       0.0257
     12 N5         24.9223   17.7813   67.7331 N.am        1 DAN      -0.2770
     13 O1A        29.5939   22.1618   66.6831 O.co2       1 DAN      -0.5623
     14 O1B        27.8148   23.0297   65.4972 O.co2       1 DAN      -0.5623
     15 O4         27.7386   17.9419   68.5289 O.3         1 DAN      -0.3807
     16 O6         26.2454   20.9726   66.1872 O.3         1 DAN      -0.3189
     17 O7         22.8945   19.4702   65.9591 O.3         1 DAN      -0.3861
     18 O8         24.9774   19.9654   63.1896 O.3         1 DAN      -0.3869
     19 O9         22.3752   18.3869   63.8099 O.3         1 DAN      -0.3924
     20 O10        24.1940   18.7989   69.5828 O.2         1 DAN      -0.3974
     21 H1         28.7462   20.2757   68.1801 H           1 DAN       0.0480
     22 H2         26.5316   19.4793   69.1747 H           1 DAN       0.0740
     23 H3         26.3379   18.2787   66.3472 H           1 DAN       0.0632
     24 H4         24.7005   20.5922   67.5024 H           1 DAN       0.0697
     25 H5         23.9835   20.9241   65.1582 H           1 DAN       0.0650
     26 H6         25.6565   18.5702   64.5406 H           1 DAN       0.0643
     27 H7         23.8573   17.0467   64.4009 H           1 DAN       0.0584
     28 H8         24.0139   17.6813   62.7402 H           1 DAN       0.0584
     29 H9         22.8584   16.8082   70.1041 H           1 DAN       0.0467
     30 H10        24.0011   15.7918   69.1952 H           1 DAN       0.0467
     31 H11        22.6145   16.5474   68.3605 H           1 DAN       0.0467
     32 H12        24.8359   16.9830   67.1857 H           1 DAN       0.1858
     33 H13        28.2669   18.1717   69.3223 H           1 DAN       0.2127
     34 H14        23.0776   18.7186   66.5690 H           1 DAN       0.2100
     35 H15        25.3924   19.4099   62.5015 H           1 DAN       0.2100
     36 H16        21.8593   17.6011   63.4958 H           1 DAN       0.2095
@<TRIPOS>BOND
     1     1    14  ar
     2     1    13  ar
     3     1     2   1
     4     2    16   1
     5     2     3   2
     6     3     4   1
     7     4    15   1
     8     4     5   1
     9     5    12   1
    10     5     6   1
    11     6    16   1
    12     6     7   1
    13     7    17   1
    14     7     8   1
    15     8    18   1
    16     8     9   1
    17     9    19   1
    18    12    10  am
    19    10    20   2
    20    10    11   1
    21     3    21   1
    22     4    22   1
    23     5    23   1
    24     6    24   1
    25     7    25   1
    26     8    26   1
    27     9    27   1
    28     9    28   1
    29    11    29   1
    30    11    30   1
    31    11    31   1
    32    12    32   1
    33    15    33   1
    34    17    34   1
    35    18    35   1
    36    19    36   1
@<TRIPOS>SUBSTRUCTURE
     1  DAN      1

