@<TRIPOS>MOLECULE
1f8b_ligand_028
    36    36
SMALL
GAST_HUCK
****
This file was generated by PARSER (from files_GN.cpp)

@<TRIPOS>ATOM
      1 C1         27.6654   18.0480   58.9661 C.2         1 DAN       0.0809
      2 C2         27.1292   18.2256   60.2306 C.2         1 DAN       0.1088
      3 C3         26.0269   17.5732   60.6580 C.2         1 DAN      -0.0276
      4 C4         25.4686   17.7903   61.9905 C.3         1 DAN       0.1003
      5 C5         26.0259   19.0661   62.7084 C.3         1 DAN       0.1064
      6 C6         27.5646   19.0908   62.4348 C.3         1 DAN       0.1321
      7 C7         28.3839   20.2530   63.0616 C.3         1 DAN       0.1154
      8 C8         29.9622   20.1359   63.0426 C.3         1 DAN       0.1068
      9 C9         30.6956   19.0081   62.2292 C.3         1 DAN       0.0727
     10 C10        25.1151   19.9107   64.8611 C.2         1 DAN       0.1734
     11 C11        24.9190   19.6195   66.2628 C.3         1 DAN       0.0257
     12 N5         25.7312   19.0028   64.1140 N.am        1 DAN      -0.2770
     13 O1A        28.6263   18.8814   58.5042 O.co2       1 DAN      -0.5623
     14 O1B        27.2622   17.0608   58.1333 O.co2       1 DAN      -0.5623
     15 O4         24.0413   17.8087   61.9186 O.3         1 DAN      -0.3807
     16 O6         27.7416   19.1516   61.0026 O.3         1 DAN      -0.3189
     17 O7         27.9305   21.4896   62.4989 O.3         1 DAN      -0.3861
     18 O8         30.5324   21.3889   62.6535 O.3         1 DAN      -0.3869
     19 O9         31.4944   18.1759   63.0735 O.3         1 DAN      -0.3924
     20 O10        24.7395   20.9865   64.4130 O.2         1 DAN      -0.3974
     21 H1         25.6063   16.8727   60.0880 H           1 DAN       0.0480
     22 H2         25.7307   16.9073   62.5832 H           1 DAN       0.0740
     23 H3         25.5735   19.9526   62.2462 H           1 DAN       0.0632
     24 H4         27.9733   18.1537   62.8262 H           1 DAN       0.0697
     25 H5         28.0883   20.3160   64.1127 H           1 DAN       0.0650
     26 H6         30.2649   20.0102   64.0892 H           1 DAN       0.0643
     27 H7         31.3623   19.4399   61.4811 H           1 DAN       0.0584
     28 H8         30.0081   18.3574   61.6959 H           1 DAN       0.0584
     29 H9         24.4247   20.4433   66.7805 H           1 DAN       0.0467
     30 H10        25.8841   19.4429   66.7403 H           1 DAN       0.0467
     31 H11        24.3022   18.7260   66.3709 H           1 DAN       0.0467
     32 H12        26.0274   18.1992   64.5737 H           1 DAN       0.1858
     33 H13        23.8253   18.1996   61.0480 H           1 DAN       0.2127
     34 H14        28.3728   21.5852   61.6297 H           1 DAN       0.2100
     35 H15        30.3881   21.4571   61.6827 H           1 DAN       0.2100
     36 H16        30.8627   17.7166   63.6672 H           1 DAN       0.2095
@<TRIPOS>BOND
     1     1    14  ar
     2     1    13  ar
     3     1     2   1
     4     2    16   1
     5     2     3   2
     6     3     4   1
     7     4    15   1
     8     4     5   1
     9     5    12   1
    10     5     6   1
    11     6    16   1
    12     6     7   1
    13     7    17   1
    14     7     8   1
    15     8    18   1
    16     8     9   1
    17     9    19   1
    18    12    10  am
    19    10    20   2
    20    10    11   1
    21     3    21   1
    22     4    22   1
    23     5    23   1
    24     6    24   1
    25     7    25   1
    26     8    26   1
    27     9    27   1
    28     9    28   1
    29    11    29   1
    30    11    30   1
    31    11    31   1
    32    12    32   1
    33    15    33   1
    34    17    34   1
    35    18    35   1
    36    19    36   1
@<TRIPOS>SUBSTRUCTURE
     1  DAN      1

