@<TRIPOS>MOLECULE
1f8b_ligand_054
    36    36
SMALL
GAST_HUCK
****
This file was generated by PARSER (from files_GN.cpp)

@<TRIPOS>ATOM
      1 C1         24.0216   19.9608   64.7209 C.2         1 DAN       0.0809
      2 C2         25.1421   19.1699   64.7103 C.2         1 DAN       0.1088
      3 C3         25.1385   17.9005   64.2243 C.2         1 DAN      -0.0276
      4 C4         26.3619   17.1759   64.0264 C.3         1 DAN       0.1003
      5 C5         27.4438   17.5262   65.0883 C.3         1 DAN       0.1064
      6 C6         27.5579   19.0777   65.2162 C.3         1 DAN       0.1321
      7 C7         28.3129   19.5544   66.5092 C.3         1 DAN       0.1154
      8 C8         29.2244   20.8081   66.3242 C.3         1 DAN       0.1068
      9 C9         28.5950   22.0446   65.6453 C.3         1 DAN       0.0727
     10 C10        29.6267   16.4145   65.4584 C.2         1 DAN       0.1734
     11 C11        30.8577   16.0073   64.8531 C.3         1 DAN       0.0257
     12 N5         28.7163   17.0077   64.6922 N.am        1 DAN      -0.2770
     13 O1A        22.9405   19.6368   65.4924 O.co2       1 DAN      -0.5623
     14 O1B        24.1254   21.2417   64.2947 O.co2       1 DAN      -0.5623
     15 O4         26.1203   15.7619   64.0392 O.3         1 DAN      -0.3807
     16 O6         26.2581   19.7341   65.2273 O.3         1 DAN      -0.3189
     17 O7         27.3871   19.7712   67.5750 O.3         1 DAN      -0.3861
     18 O8         29.7187   21.2100   67.6018 O.3         1 DAN      -0.3869
     19 O9         27.2462   22.2449   66.0621 O.3         1 DAN      -0.3924
     20 O10        29.4490   16.2272   66.6576 O.2         1 DAN      -0.3974
     21 H1         24.2977   17.5381   63.8106 H           1 DAN       0.0480
     22 H2         26.7441   17.4349   63.0309 H           1 DAN       0.0740
     23 H3         27.1180   17.1225   66.0553 H           1 DAN       0.0632
     24 H4         28.0774   19.4522   64.3342 H           1 DAN       0.0697
     25 H5         28.9841   18.7430   66.8294 H           1 DAN       0.0650
     26 H6         30.0846   20.5260   65.7230 H           1 DAN       0.0643
     27 H7         28.5933   21.9199   64.5582 H           1 DAN       0.0584
     28 H8         29.1848   22.9407   65.8709 H           1 DAN       0.0584
     29 H9         31.5771   15.6337   65.5911 H           1 DAN       0.0467
     30 H10        31.3148   16.8538   64.3281 H           1 DAN       0.0467
     31 H11        30.6575   15.2088   64.1314 H           1 DAN       0.0467
     32 H12        28.9702   17.1424   63.7656 H           1 DAN       0.1858
     33 H13        25.5252   15.6036   63.2766 H           1 DAN       0.2127
     34 H14        27.0172   18.8841   67.7884 H           1 DAN       0.2100
     35 H15        28.9269   21.4492   68.1321 H           1 DAN       0.2100
     36 H16        27.2160   23.1474   66.4745 H           1 DAN       0.2095
@<TRIPOS>BOND
     1     1    14  ar
     2     1    13  ar
     3     1     2   1
     4     2    16   1
     5     2     3   2
     6     3     4   1
     7     4    15   1
     8     4     5   1
     9     5    12   1
    10     5     6   1
    11     6    16   1
    12     6     7   1
    13     7    17   1
    14     7     8   1
    15     8    18   1
    16     8     9   1
    17     9    19   1
    18    12    10  am
    19    10    20   2
    20    10    11   1
    21     3    21   1
    22     4    22   1
    23     5    23   1
    24     6    24   1
    25     7    25   1
    26     8    26   1
    27     9    27   1
    28     9    28   1
    29    11    29   1
    30    11    30   1
    31    11    31   1
    32    12    32   1
    33    15    33   1
    34    17    34   1
    35    18    35   1
    36    19    36   1
@<TRIPOS>SUBSTRUCTURE
     1  DAN      1

