@<TRIPOS>MOLECULE
1f8b_ligand_025
    36    36
SMALL
GAST_HUCK
****
This file was generated by PARSER (from files_GN.cpp)

@<TRIPOS>ATOM
      1 C1         24.6188   19.6699   64.9236 C.2         1 DAN       0.0809
      2 C2         24.5793   19.2660   66.2325 C.2         1 DAN       0.1088
      3 C3         25.6766   19.3097   67.0106 C.2         1 DAN      -0.0276
      4 C4         25.5941   18.8771   68.3999 C.3         1 DAN       0.1003
      5 C5         24.2192   19.2217   69.0828 C.3         1 DAN       0.1064
      6 C6         23.0551   19.4061   68.0264 C.3         1 DAN       0.1321
      7 C7         21.6457   18.9656   68.5180 C.3         1 DAN       0.1154
      8 C8         21.4324   17.4527   68.8985 C.3         1 DAN       0.1068
      9 C9         20.2417   17.2121   69.8620 C.3         1 DAN       0.0727
     10 C10        24.5815   21.5905   69.7315 C.2         1 DAN       0.1734
     11 C11        24.6246   22.5263   70.8284 C.3         1 DAN       0.0257
     12 N5         24.3188   20.3187   69.9966 N.am        1 DAN      -0.2770
     13 O1A        25.2626   18.8558   64.0595 O.co2       1 DAN      -0.5623
     14 O1B        24.7367   20.9991   64.6742 O.co2       1 DAN      -0.5623
     15 O4         25.8480   17.4634   68.4484 O.3         1 DAN      -0.3807
     16 O6         23.3977   18.8187   66.7382 O.3         1 DAN      -0.3189
     17 O7         21.2787   19.8222   69.5964 O.3         1 DAN      -0.3861
     18 O8         21.2287   16.6850   67.7085 O.3         1 DAN      -0.3869
     19 O9         19.0638   17.9039   69.4620 O.3         1 DAN      -0.3924
     20 O10        24.7895   21.9940   68.5857 O.2         1 DAN      -0.3974
     21 H1         26.5346   19.6790   66.6595 H           1 DAN       0.0480
     22 H2         26.4206   19.3341   68.9595 H           1 DAN       0.0740
     23 H3         23.9640   18.3794   69.7177 H           1 DAN       0.0632
     24 H4         22.9431   20.4809   67.8250 H           1 DAN       0.0697
     25 H5         20.9404   19.1957   67.7135 H           1 DAN       0.0650
     26 H6         22.3316   17.0608   69.3964 H           1 DAN       0.0643
     27 H7         20.5214   17.5604   70.8482 H           1 DAN       0.0584
     28 H8         20.0132   16.1505   69.9334 H           1 DAN       0.0584
     29 H9         24.7946   23.5519   70.4778 H           1 DAN       0.0467
     30 H10        25.4336   22.2593   71.5205 H           1 DAN       0.0467
     31 H11        23.6741   22.5028   71.3766 H           1 DAN       0.0467
     32 H12        24.1787   20.1142   70.9310 H           1 DAN       0.1858
     33 H13        25.5934   17.0886   67.5624 H           1 DAN       0.2127
     34 H14        21.7928   19.5084   70.3722 H           1 DAN       0.2100
     35 H15        22.0305   16.1183   67.5987 H           1 DAN       0.2100
     36 H16        18.5218   17.9849   70.2757 H           1 DAN       0.2095
@<TRIPOS>BOND
     1     1    14  ar
     2     1    13  ar
     3     1     2   1
     4     2    16   1
     5     2     3   2
     6     3     4   1
     7     4    15   1
     8     4     5   1
     9     5    12   1
    10     5     6   1
    11     6    16   1
    12     6     7   1
    13     7    17   1
    14     7     8   1
    15     8    18   1
    16     8     9   1
    17     9    19   1
    18    12    10  am
    19    10    20   2
    20    10    11   1
    21     3    21   1
    22     4    22   1
    23     5    23   1
    24     6    24   1
    25     7    25   1
    26     8    26   1
    27     9    27   1
    28     9    28   1
    29    11    29   1
    30    11    30   1
    31    11    31   1
    32    12    32   1
    33    15    33   1
    34    17    34   1
    35    18    35   1
    36    19    36   1
@<TRIPOS>SUBSTRUCTURE
     1  DAN      1

