@<TRIPOS>MOLECULE
1f8b_ligand_033
    36    36
SMALL
GAST_HUCK
****
This file was generated by PARSER (from files_GN.cpp)

@<TRIPOS>ATOM
      1 C1         28.8342   16.9659   65.5252 C.2         1 DAN       0.0809
      2 C2         28.8685   16.8447   64.1608 C.2         1 DAN       0.1088
      3 C3         29.6510   15.9460   63.5239 C.2         1 DAN      -0.0276
      4 C4         29.6706   15.7916   62.0822 C.3         1 DAN       0.1003
      5 C5         28.5940   16.6562   61.3071 C.3         1 DAN       0.1064
      6 C6         28.1380   17.9247   62.1140 C.3         1 DAN       0.1321
      7 C7         29.0158   19.2166   61.9052 C.3         1 DAN       0.1154
      8 C8         28.7936   20.3110   63.0174 C.3         1 DAN       0.1068
      9 C9         30.0997   20.8013   63.7235 C.3         1 DAN       0.0727
     10 C10        26.8569   14.8194   61.4008 C.2         1 DAN       0.1734
     11 C11        25.7629   14.2190   60.6858 C.3         1 DAN       0.0257
     12 N5         27.4623   15.8846   60.8468 N.am        1 DAN      -0.2770
     13 O1A        28.7962   15.8921   66.3602 O.co2       1 DAN      -0.5623
     14 O1B        28.8226   18.1966   66.0957 O.co2       1 DAN      -0.5623
     15 O4         31.0028   16.0318   61.6101 O.3         1 DAN      -0.3807
     16 O6         27.9476   17.5840   63.4990 O.3         1 DAN      -0.3189
     17 O7         30.4045   18.8461   61.7502 O.3         1 DAN      -0.3861
     18 O8         28.1364   21.4639   62.4751 O.3         1 DAN      -0.3869
     19 O9         29.7964   21.5602   64.9027 O.3         1 DAN      -0.3924
     20 O10        27.2717   14.3202   62.4491 O.2         1 DAN      -0.3974
     21 H1         30.2782   15.3819   64.0570 H           1 DAN       0.0480
     22 H2         29.4913   14.7288   61.8750 H           1 DAN       0.0740
     23 H3         29.0609   16.9944   60.3736 H           1 DAN       0.0632
     24 H4         27.1366   18.1868   61.7607 H           1 DAN       0.0697
     25 H5         28.7013   19.6377   60.9429 H           1 DAN       0.0650
     26 H6         28.1297   19.9378   63.8106 H           1 DAN       0.0643
     27 H7         30.6802   21.4182   63.0266 H           1 DAN       0.0584
     28 H8         30.7102   19.9375   64.0292 H           1 DAN       0.0584
     29 H9         25.4065   13.3210   61.2006 H           1 DAN       0.0467
     30 H10        26.0885   13.9342   59.6813 H           1 DAN       0.0467
     31 H11        24.9305   14.9333   60.6166 H           1 DAN       0.0467
     32 H12        27.0912   16.1612   59.9849 H           1 DAN       0.1858
     33 H13        31.0494   17.0106   61.4339 H           1 DAN       0.2127
     34 H14        30.7593   19.6100   61.2313 H           1 DAN       0.2100
     35 H15        28.7404   21.7968   61.7782 H           1 DAN       0.2100
     36 H16        30.2279   22.4307   64.7426 H           1 DAN       0.2095
@<TRIPOS>BOND
     1     1    14  ar
     2     1    13  ar
     3     1     2   1
     4     2    16   1
     5     2     3   2
     6     3     4   1
     7     4    15   1
     8     4     5   1
     9     5    12   1
    10     5     6   1
    11     6    16   1
    12     6     7   1
    13     7    17   1
    14     7     8   1
    15     8    18   1
    16     8     9   1
    17     9    19   1
    18    12    10  am
    19    10    20   2
    20    10    11   1
    21     3    21   1
    22     4    22   1
    23     5    23   1
    24     6    24   1
    25     7    25   1
    26     8    26   1
    27     9    27   1
    28     9    28   1
    29    11    29   1
    30    11    30   1
    31    11    31   1
    32    12    32   1
    33    15    33   1
    34    17    34   1
    35    18    35   1
    36    19    36   1
@<TRIPOS>SUBSTRUCTURE
     1  DAN      1

