@<TRIPOS>MOLECULE
1f8b_ligand_050
    36    36
SMALL
GAST_HUCK
****
This file was generated by PARSER (from files_GN.cpp)

@<TRIPOS>ATOM
      1 C1         25.2804   19.9593   65.1056 C.2         1 DAN       0.0809
      2 C2         25.9229   19.6637   63.9247 C.2         1 DAN       0.1088
      3 C3         25.7323   18.4974   63.2783 C.2         1 DAN      -0.0276
      4 C4         26.2408   18.3400   61.9336 C.3         1 DAN       0.1003
      5 C5         27.6771   18.9314   61.8125 C.3         1 DAN       0.1064
      6 C6         27.7450   20.3715   62.4571 C.3         1 DAN       0.1321
      7 C7         29.1440   20.7876   63.0477 C.3         1 DAN       0.1154
      8 C8         29.4447   20.4961   64.5534 C.3         1 DAN       0.1068
      9 C9         28.7714   21.4641   65.5641 C.3         1 DAN       0.0727
     10 C10        27.8021   19.5487   59.3927 C.2         1 DAN       0.1734
     11 C11        28.3449   19.2059   58.1051 C.3         1 DAN       0.0257
     12 N5         28.1579   18.8330   60.4599 N.am        1 DAN      -0.2770
     13 O1A        25.0536   19.0293   66.0701 O.co2       1 DAN      -0.5623
     14 O1B        24.7153   21.1739   65.2633 O.co2       1 DAN      -0.5623
     15 O4         26.2207   16.9663   61.5429 O.3         1 DAN      -0.3807
     16 O6         26.6597   20.6552   63.3797 O.3         1 DAN      -0.3189
     17 O7         30.1984   20.2049   62.2779 O.3         1 DAN      -0.3861
     18 O8         29.1292   19.1471   64.8954 O.3         1 DAN      -0.3869
     19 O9         28.9130   22.8333   65.1924 O.3         1 DAN      -0.3924
     20 O10        26.9970   20.4728   59.4729 O.2         1 DAN      -0.3974
     21 H1         25.1684   17.7758   63.6722 H           1 DAN       0.0480
     22 H2         25.5663   18.8792   61.2653 H           1 DAN       0.0740
     23 H3         28.3198   18.2771   62.4091 H           1 DAN       0.0632
     24 H4         27.5587   21.0855   61.6522 H           1 DAN       0.0697
     25 H5         29.2545   21.8660   62.9041 H           1 DAN       0.0650
     26 H6         30.5228   20.6110   64.7085 H           1 DAN       0.0643
     27 H7         29.2228   21.3341   66.5501 H           1 DAN       0.0584
     28 H8         27.7118   21.2500   65.6528 H           1 DAN       0.0584
     29 H9         28.0358   19.9099   57.3339 H           1 DAN       0.0467
     30 H10        28.0106   18.2093   57.8155 H           1 DAN       0.0467
     31 H11        29.4309   19.2127   58.1448 H           1 DAN       0.0467
     32 H12        28.7923   18.1185   60.2927 H           1 DAN       0.1858
     33 H13        26.8440   16.5123   62.1526 H           1 DAN       0.2127
     34 H14        30.2526   20.7476   61.4674 H           1 DAN       0.2100
     35 H15        29.7386   18.5940   64.3577 H           1 DAN       0.2100
     36 H16        29.8687   22.9750   65.0210 H           1 DAN       0.2095
@<TRIPOS>BOND
     1     1    14  ar
     2     1    13  ar
     3     1     2   1
     4     2    16   1
     5     2     3   2
     6     3     4   1
     7     4    15   1
     8     4     5   1
     9     5    12   1
    10     5     6   1
    11     6    16   1
    12     6     7   1
    13     7    17   1
    14     7     8   1
    15     8    18   1
    16     8     9   1
    17     9    19   1
    18    12    10  am
    19    10    20   2
    20    10    11   1
    21     3    21   1
    22     4    22   1
    23     5    23   1
    24     6    24   1
    25     7    25   1
    26     8    26   1
    27     9    27   1
    28     9    28   1
    29    11    29   1
    30    11    30   1
    31    11    31   1
    32    12    32   1
    33    15    33   1
    34    17    34   1
    35    18    35   1
    36    19    36   1
@<TRIPOS>SUBSTRUCTURE
     1  DAN      1

