@<TRIPOS>MOLECULE
1f8b_ligand_046
    36    36
SMALL
GAST_HUCK
****
This file was generated by PARSER (from files_GN.cpp)

@<TRIPOS>ATOM
      1 C1         26.9910   14.3943   61.2501 C.2         1 DAN       0.0809
      2 C2         26.4328   15.5262   61.7860 C.2         1 DAN       0.1088
      3 C3         25.1188   15.5921   62.0815 C.2         1 DAN      -0.0276
      4 C4         24.5337   16.7063   62.7938 C.3         1 DAN       0.1003
      5 C5         25.4514   17.9632   62.8605 C.3         1 DAN       0.1064
      6 C6         26.9505   17.5402   63.0183 C.3         1 DAN       0.1321
      7 C7         28.0318   18.6756   63.0226 C.3         1 DAN       0.1154
      8 C8         27.5762   20.1244   62.6148 C.3         1 DAN       0.1068
      9 C9         28.6262   21.2397   62.8505 C.3         1 DAN       0.0727
     10 C10        25.2072   19.1123   65.0616 C.2         1 DAN       0.1734
     11 C11        24.5214   20.1715   65.7800 C.3         1 DAN       0.0257
     12 N5         24.8928   18.9081   63.7842 N.am        1 DAN      -0.2770
     13 O1A        27.6068   13.4853   62.0516 O.co2       1 DAN      -0.5623
     14 O1B        27.0408   14.2141   59.8965 O.co2       1 DAN      -0.5623
     15 O4         23.2879   17.0656   62.1814 O.3         1 DAN      -0.3807
     16 O6         27.2687   16.5852   61.9693 O.3         1 DAN      -0.3189
     17 O7         28.6577   18.7307   64.3063 O.3         1 DAN      -0.3861
     18 O8         27.1576   20.1311   61.2431 O.3         1 DAN      -0.3869
     19 O9         29.9533   20.8227   62.5399 O.3         1 DAN      -0.3924
     20 O10        26.1030   18.4930   65.6256 O.2         1 DAN      -0.3974
     21 H1         24.5544   14.7691   61.9383 H           1 DAN       0.0480
     22 H2         24.3185   16.3559   63.8024 H           1 DAN       0.0740
     23 H3         25.3728   18.4338   61.8782 H           1 DAN       0.0632
     24 H4         27.0520   16.9856   63.9598 H           1 DAN       0.0697
     25 H5         28.8375   18.3882   62.3339 H           1 DAN       0.0650
     26 H6         26.7013   20.4034   63.2144 H           1 DAN       0.0643
     27 H7         28.6075   21.5520   63.8986 H           1 DAN       0.0584
     28 H8         28.3835   22.1199   62.2477 H           1 DAN       0.0584
     29 H9         24.9054   20.2753   66.8116 H           1 DAN       0.0467
     30 H10        23.4469   19.9548   65.8357 H           1 DAN       0.0467
     31 H11        24.6889   21.1325   65.2646 H           1 DAN       0.0467
     32 H12        24.1192   19.3933   63.4565 H           1 DAN       0.1858
     33 H13        22.5666   16.6956   62.7385 H           1 DAN       0.2127
     34 H14        27.9685   19.0500   64.9262 H           1 DAN       0.2100
     35 H15        27.9790   19.9927   60.7239 H           1 DAN       0.2100
     36 H16        30.0923   21.1152   61.6177 H           1 DAN       0.2095
@<TRIPOS>BOND
     1     1    14  ar
     2     1    13  ar
     3     1     2   1
     4     2    16   1
     5     2     3   2
     6     3     4   1
     7     4    15   1
     8     4     5   1
     9     5    12   1
    10     5     6   1
    11     6    16   1
    12     6     7   1
    13     7    17   1
    14     7     8   1
    15     8    18   1
    16     8     9   1
    17     9    19   1
    18    12    10  am
    19    10    20   2
    20    10    11   1
    21     3    21   1
    22     4    22   1
    23     5    23   1
    24     6    24   1
    25     7    25   1
    26     8    26   1
    27     9    27   1
    28     9    28   1
    29    11    29   1
    30    11    30   1
    31    11    31   1
    32    12    32   1
    33    15    33   1
    34    17    34   1
    35    18    35   1
    36    19    36   1
@<TRIPOS>SUBSTRUCTURE
     1  DAN      1

