@<TRIPOS>MOLECULE
1f8b_ligand_058
    36    36
SMALL
GAST_HUCK
****
This file was generated by PARSER (from files_GN.cpp)

@<TRIPOS>ATOM
      1 C1         24.9463   15.9277   62.0517 C.2         1 DAN       0.0809
      2 C2         24.8255   16.9402   62.9948 C.2         1 DAN       0.1088
      3 C3         24.0320   16.8470   64.0864 C.2         1 DAN      -0.0276
      4 C4         23.9406   17.9584   65.0201 C.3         1 DAN       0.1003
      5 C5         25.3091   18.7081   65.2093 C.3         1 DAN       0.1064
      6 C6         26.2228   18.6216   63.9149 C.3         1 DAN       0.1321
      7 C7         26.8803   19.9822   63.5112 C.3         1 DAN       0.1154
      8 C8         28.4451   19.9688   63.4121 C.3         1 DAN       0.1068
      9 C9         29.0410   21.3780   63.1462 C.3         1 DAN       0.0727
     10 C10        26.8934   18.7641   67.1210 C.2         1 DAN       0.1734
     11 C11        27.5332   17.9985   68.1748 C.3         1 DAN       0.0257
     12 N5         26.0075   18.1445   66.3421 N.am        1 DAN      -0.2770
     13 O1A        24.1931   14.8040   62.0921 O.co2       1 DAN      -0.5623
     14 O1B        25.8055   16.0658   61.0138 O.co2       1 DAN      -0.5623
     15 O4         22.9068   18.8502   64.5937 O.3         1 DAN      -0.3807
     16 O6         25.5015   18.0869   62.7663 O.3         1 DAN      -0.3189
     17 O7         26.3039   20.4218   62.2760 O.3         1 DAN      -0.3861
     18 O8         29.0134   19.4468   64.6211 O.3         1 DAN      -0.3869
     19 O9         30.3702   21.2984   62.6303 O.3         1 DAN      -0.3924
     20 O10        27.1843   19.9420   66.9683 O.2         1 DAN      -0.3974
     21 H1         23.5046   16.0193   64.2626 H           1 DAN       0.0480
     22 H2         23.5920   17.5692   65.9840 H           1 DAN       0.0740
     23 H3         25.0644   19.7554   65.4304 H           1 DAN       0.0632
     24 H4         27.0368   17.9147   64.1105 H           1 DAN       0.0697
     25 H5         26.6217   20.7350   64.2612 H           1 DAN       0.0650
     26 H6         28.7397   19.3131   62.5871 H           1 DAN       0.0643
     27 H7         29.0826   21.9490   64.0776 H           1 DAN       0.0584
     28 H8         28.4223   21.9164   62.4212 H           1 DAN       0.0584
     29 H9         28.2422   18.6107   68.7448 H           1 DAN       0.0467
     30 H10        28.0842   17.1550   67.7513 H           1 DAN       0.0467
     31 H11        26.7786   17.6074   68.8642 H           1 DAN       0.0467
     32 H12        25.8388   17.2106   66.5446 H           1 DAN       0.1858
     33 H13        23.1835   19.2237   63.7292 H           1 DAN       0.2127
     34 H14        26.5324   19.7363   61.6161 H           1 DAN       0.2100
     35 H15        28.6971   20.0370   65.3409 H           1 DAN       0.2100
     36 H16        30.2990   21.4073   61.6550 H           1 DAN       0.2095
@<TRIPOS>BOND
     1     1    14  ar
     2     1    13  ar
     3     1     2   1
     4     2    16   1
     5     2     3   2
     6     3     4   1
     7     4    15   1
     8     4     5   1
     9     5    12   1
    10     5     6   1
    11     6    16   1
    12     6     7   1
    13     7    17   1
    14     7     8   1
    15     8    18   1
    16     8     9   1
    17     9    19   1
    18    12    10  am
    19    10    20   2
    20    10    11   1
    21     3    21   1
    22     4    22   1
    23     5    23   1
    24     6    24   1
    25     7    25   1
    26     8    26   1
    27     9    27   1
    28     9    28   1
    29    11    29   1
    30    11    30   1
    31    11    31   1
    32    12    32   1
    33    15    33   1
    34    17    34   1
    35    18    35   1
    36    19    36   1
@<TRIPOS>SUBSTRUCTURE
     1  DAN      1

