@<TRIPOS>MOLECULE
1f8b_ligand_009
    36    36
SMALL
GAST_HUCK
****
This file was generated by PARSER (from files_GN.cpp)

@<TRIPOS>ATOM
      1 C1         24.1510   20.0572   65.2060 C.2         1 DAN       0.0809
      2 C2         25.1726   19.1461   65.2971 C.2         1 DAN       0.1088
      3 C3         26.2940   19.3976   65.9989 C.2         1 DAN      -0.0276
      4 C4         27.3981   18.4547   65.9091 C.3         1 DAN       0.1003
      5 C5         27.5998   18.0601   64.4137 C.3         1 DAN       0.1064
      6 C6         26.2148   17.6239   63.7879 C.3         1 DAN       0.1321
      7 C7         25.9687   18.1350   62.3355 C.3         1 DAN       0.1154
      8 C8         27.1241   17.8013   61.3227 C.3         1 DAN       0.1068
      9 C9         26.6673   17.3099   59.9194 C.3         1 DAN       0.0727
     10 C10        29.8915   17.1657   64.2637 C.2         1 DAN       0.1734
     11 C11        30.7020   15.9990   64.0183 C.3         1 DAN       0.0257
     12 N5         28.5749   17.0221   64.2615 N.am        1 DAN      -0.2770
     13 O1A        24.3407   21.1192   64.3905 O.co2       1 DAN      -0.5623
     14 O1B        22.8710   19.6678   65.4312 O.co2       1 DAN      -0.5623
     15 O4         28.5875   19.0011   66.4754 O.3         1 DAN      -0.3807
     16 O6         25.0719   17.9843   64.6121 O.3         1 DAN      -0.3189
     17 O7         24.7079   17.6057   61.9046 O.3         1 DAN      -0.3861
     18 O8         27.9403   18.9699   61.1462 O.3         1 DAN      -0.3869
     19 O9         25.8038   16.1792   60.0559 O.3         1 DAN      -0.3924
     20 O10        30.4346   18.2532   64.4328 O.2         1 DAN      -0.3974
     21 H1         26.4114   20.2504   66.5031 H           1 DAN       0.0480
     22 H2         27.1446   17.5609   66.4879 H           1 DAN       0.0740
     23 H3         27.9447   18.9581   63.8900 H           1 DAN       0.0632
     24 H4         26.1726   16.5340   63.7525 H           1 DAN       0.0697
     25 H5         25.8395   19.2218   62.3663 H           1 DAN       0.0650
     26 H6         27.7726   17.0190   61.7370 H           1 DAN       0.0643
     27 H7         27.5391   17.0075   59.3224 H           1 DAN       0.0584
     28 H8         26.1450   18.1148   59.3850 H           1 DAN       0.0584
     29 H9         31.7680   16.2401   64.0447 H           1 DAN       0.0467
     30 H10        30.4621   15.5878   63.0340 H           1 DAN       0.0467
     31 H11        30.5012   15.2392   64.7784 H           1 DAN       0.0467
     32 H12        28.2423   16.1249   64.0995 H           1 DAN       0.1858
     33 H13        28.8225   19.7578   65.8987 H           1 DAN       0.2127
     34 H14        24.4579   18.1333   61.1153 H           1 DAN       0.2100
     35 H15        28.7611   18.6559   60.7057 H           1 DAN       0.2100
     36 H16        25.3099   16.1247   59.2114 H           1 DAN       0.2095
@<TRIPOS>BOND
     1     1    14  ar
     2     1    13  ar
     3     1     2   1
     4     2    16   1
     5     2     3   2
     6     3     4   1
     7     4    15   1
     8     4     5   1
     9     5    12   1
    10     5     6   1
    11     6    16   1
    12     6     7   1
    13     7    17   1
    14     7     8   1
    15     8    18   1
    16     8     9   1
    17     9    19   1
    18    12    10  am
    19    10    20   2
    20    10    11   1
    21     3    21   1
    22     4    22   1
    23     5    23   1
    24     6    24   1
    25     7    25   1
    26     8    26   1
    27     9    27   1
    28     9    28   1
    29    11    29   1
    30    11    30   1
    31    11    31   1
    32    12    32   1
    33    15    33   1
    34    17    34   1
    35    18    35   1
    36    19    36   1
@<TRIPOS>SUBSTRUCTURE
     1  DAN      1

