@<TRIPOS>MOLECULE
1f8b_ligand_077
    36    36
SMALL
GAST_HUCK
****
This file was generated by PARSER (from files_GN.cpp)

@<TRIPOS>ATOM
      1 C1         26.2328   19.5703   65.6686 C.2         1 DAN       0.0809
      2 C2         26.4124   18.4980   64.8083 C.2         1 DAN       0.1088
      3 C3         27.0948   17.3775   65.1384 C.2         1 DAN      -0.0276
      4 C4         27.3605   16.3054   64.1951 C.3         1 DAN       0.1003
      5 C5         26.6997   16.4875   62.7796 C.3         1 DAN       0.1064
      6 C6         26.4098   17.9969   62.4659 C.3         1 DAN       0.1321
      7 C7         27.6302   18.8373   61.9368 C.3         1 DAN       0.1154
      8 C8         27.3890   20.3992   61.9807 C.3         1 DAN       0.1068
      9 C9         28.4943   21.2601   62.6592 C.3         1 DAN       0.0727
     10 C10        25.0568   14.8505   61.9073 C.2         1 DAN       0.1734
     11 C11        23.7841   14.1876   62.0986 C.3         1 DAN       0.0257
     12 N5         25.4509   15.7688   62.7816 N.am        1 DAN      -0.2770
     13 O1A        26.2646   19.4210   67.0237 O.co2       1 DAN      -0.5623
     14 O1B        25.9308   20.7990   65.1933 O.co2       1 DAN      -0.5623
     15 O4         28.7762   16.1747   64.0792 O.3         1 DAN      -0.3807
     16 O6         25.7860   18.6004   63.6167 O.3         1 DAN      -0.3189
     17 O7         28.8426   18.4964   62.6381 O.3         1 DAN      -0.3861
     18 O8         27.1553   20.8984   60.6566 O.3         1 DAN      -0.3869
     19 O9         29.8228   20.7785   62.4498 O.3         1 DAN      -0.3924
     20 O10        25.7328   14.5605   60.9187 O.2         1 DAN      -0.3974
     21 H1         27.4899   17.2978   66.0451 H           1 DAN       0.0480
     22 H2         27.0156   15.3675   64.6406 H           1 DAN       0.0740
     23 H3         27.3718   16.0919   62.0083 H           1 DAN       0.0632
     24 H4         25.6678   18.0361   61.6638 H           1 DAN       0.0697
     25 H5         27.7957   18.5443   60.8844 H           1 DAN       0.0650
     26 H6         26.4548   20.6072   62.5199 H           1 DAN       0.0643
     27 H7         28.3051   21.2860   63.7373 H           1 DAN       0.0584
     28 H8         28.4282   22.2878   62.2881 H           1 DAN       0.0584
     29 H9         23.5894   13.4548   61.3064 H           1 DAN       0.0467
     30 H10        22.9803   14.9338   62.0897 H           1 DAN       0.0467
     31 H11        23.7776   13.6626   63.0634 H           1 DAN       0.0467
     32 H12        24.8377   15.9565   63.5175 H           1 DAN       0.1858
     33 H13        28.9288   15.4080   63.4843 H           1 DAN       0.2127
     34 H14        29.0879   17.6118   62.2680 H           1 DAN       0.2100
     35 H15        27.9748   20.6845   60.1534 H           1 DAN       0.2100
     36 H16        30.0405   21.0639   61.5337 H           1 DAN       0.2095
@<TRIPOS>BOND
     1     1    14  ar
     2     1    13  ar
     3     1     2   1
     4     2    16   1
     5     2     3   2
     6     3     4   1
     7     4    15   1
     8     4     5   1
     9     5    12   1
    10     5     6   1
    11     6    16   1
    12     6     7   1
    13     7    17   1
    14     7     8   1
    15     8    18   1
    16     8     9   1
    17     9    19   1
    18    12    10  am
    19    10    20   2
    20    10    11   1
    21     3    21   1
    22     4    22   1
    23     5    23   1
    24     6    24   1
    25     7    25   1
    26     8    26   1
    27     9    27   1
    28     9    28   1
    29    11    29   1
    30    11    30   1
    31    11    31   1
    32    12    32   1
    33    15    33   1
    34    17    34   1
    35    18    35   1
    36    19    36   1
@<TRIPOS>SUBSTRUCTURE
     1  DAN      1

