@<TRIPOS>MOLECULE
1f8b_ligand_002
    36    36
SMALL
GAST_HUCK
****
This file was generated by PARSER (from files_GN.cpp)

@<TRIPOS>ATOM
      1 C1         24.0680   19.8309   64.5520 C.2         1 DAN       0.0809
      2 C2         25.0266   18.9466   64.0833 C.2         1 DAN       0.1088
      3 C3         25.0986   17.6595   64.4745 C.2         1 DAN      -0.0276
      4 C4         26.1843   16.8217   63.9868 C.3         1 DAN       0.1003
      5 C5         26.5986   17.1279   62.4960 C.3         1 DAN       0.1064
      6 C6         26.1232   18.5565   62.0337 C.3         1 DAN       0.1321
      7 C7         27.0547   19.2924   61.0145 C.3         1 DAN       0.1154
      8 C8         27.1709   18.6097   59.6058 C.3         1 DAN       0.1068
      9 C9         27.8508   19.4873   58.5229 C.3         1 DAN       0.0727
     10 C10        26.3869   14.8373   61.5814 C.2         1 DAN       0.1734
     11 C11        25.7951   13.9966   60.5694 C.3         1 DAN       0.0257
     12 N5         26.0939   16.1327   61.5876 N.am        1 DAN      -0.2770
     13 O1A        22.9889   19.4344   65.2724 O.co2       1 DAN      -0.5623
     14 O1B        24.1614   21.1431   64.2601 O.co2       1 DAN      -0.5623
     15 O4         27.2952   17.0263   64.8620 O.3         1 DAN      -0.3807
     16 O6         25.9445   19.4045   63.2024 O.3         1 DAN      -0.3189
     17 O7         26.5394   20.6237   60.8852 O.3         1 DAN      -0.3861
     18 O8         27.9181   17.3960   59.7302 O.3         1 DAN      -0.3869
     19 O9         27.5564   19.0518   57.1974 O.3         1 DAN      -0.3924
     20 O10        27.1406   14.3371   62.4107 O.2         1 DAN      -0.3974
     21 H1         24.4350   17.2700   65.1009 H           1 DAN       0.0480
     22 H2         25.8899   15.7748   64.0980 H           1 DAN       0.0740
     23 H3         27.6925   17.0995   62.4381 H           1 DAN       0.0632
     24 H4         25.1383   18.4745   61.5551 H           1 DAN       0.0697
     25 H5         28.0553   19.3745   61.4485 H           1 DAN       0.0650
     26 H6         26.1706   18.3495   59.2540 H           1 DAN       0.0643
     27 H7         28.9332   19.4795   58.6590 H           1 DAN       0.0584
     28 H8         27.5006   20.5198   58.5900 H           1 DAN       0.0584
     29 H9         26.0633   12.9469   60.7133 H           1 DAN       0.0467
     30 H10        26.1430   14.3117   59.5831 H           1 DAN       0.0467
     31 H11        24.7078   14.0796   60.6068 H           1 DAN       0.0467
     32 H12        25.4996   16.4378   60.8801 H           1 DAN       0.1858
     33 H13        27.0685   16.5082   65.6628 H           1 DAN       0.2127
     34 H14        27.3148   21.2131   60.7748 H           1 DAN       0.2100
     35 H15        27.6458   16.8326   58.9760 H           1 DAN       0.2100
     36 H16        27.8745   18.1278   57.1395 H           1 DAN       0.2095
@<TRIPOS>BOND
     1     1    14  ar
     2     1    13  ar
     3     1     2   1
     4     2    16   1
     5     2     3   2
     6     3     4   1
     7     4    15   1
     8     4     5   1
     9     5    12   1
    10     5     6   1
    11     6    16   1
    12     6     7   1
    13     7    17   1
    14     7     8   1
    15     8    18   1
    16     8     9   1
    17     9    19   1
    18    12    10  am
    19    10    20   2
    20    10    11   1
    21     3    21   1
    22     4    22   1
    23     5    23   1
    24     6    24   1
    25     7    25   1
    26     8    26   1
    27     9    27   1
    28     9    28   1
    29    11    29   1
    30    11    30   1
    31    11    31   1
    32    12    32   1
    33    15    33   1
    34    17    34   1
    35    18    35   1
    36    19    36   1
@<TRIPOS>SUBSTRUCTURE
     1  DAN      1

