@<TRIPOS>MOLECULE
1f8b_ligand_064
    36    36
SMALL
GAST_HUCK
****
This file was generated by PARSER (from files_GN.cpp)

@<TRIPOS>ATOM
      1 C1         23.3269   14.6846   62.6374 C.2         1 DAN       0.0809
      2 C2         24.1831   15.7022   62.9311 C.2         1 DAN       0.1088
      3 C3         23.8341   16.7563   63.6894 C.2         1 DAN      -0.0276
      4 C4         24.7931   17.8103   63.9679 C.3         1 DAN       0.1003
      5 C5         25.7321   18.0958   62.7329 C.3         1 DAN       0.1064
      6 C6         26.1979   16.7404   62.0705 C.3         1 DAN       0.1321
      7 C7         26.2133   16.7411   60.4999 C.3         1 DAN       0.1154
      8 C8         27.5326   17.2522   59.8175 C.3         1 DAN       0.1068
      9 C9         27.3223   17.7932   58.3787 C.3         1 DAN       0.0727
     10 C10        26.9379   20.0826   63.6873 C.2         1 DAN       0.1734
     11 C11        28.2174   20.7518   63.7709 C.3         1 DAN       0.0257
     12 N5         26.8788   18.9108   63.0497 N.am        1 DAN      -0.2770
     13 O1A        23.1399   14.3289   61.3353 O.co2       1 DAN      -0.5623
     14 O1B        22.5565   14.0785   63.5812 O.co2       1 DAN      -0.5623
     15 O4         24.0847   18.9845   64.3807 O.3         1 DAN      -0.3807
     16 O6         25.4681   15.5769   62.5260 O.3         1 DAN      -0.3189
     17 O7         25.9891   15.4063   60.0285 O.3         1 DAN      -0.3861
     18 O8         28.1524   18.2919   60.5764 O.3         1 DAN      -0.3869
     19 O9         26.9893   16.7524   57.4655 O.3         1 DAN      -0.3924
     20 O10        25.9413   20.5609   64.2464 O.2         1 DAN      -0.3974
     21 H1         22.8885   16.8500   64.0033 H           1 DAN       0.0480
     22 H2         25.4157   17.4885   64.8039 H           1 DAN       0.0740
     23 H3         25.1338   18.6678   62.0089 H           1 DAN       0.0632
     24 H4         27.2124   16.5116   62.3937 H           1 DAN       0.0697
     25 H5         25.3605   17.3383   60.1540 H           1 DAN       0.0650
     26 H6         28.2503   16.4188   59.7793 H           1 DAN       0.0643
     27 H7         28.2417   18.2760   58.0328 H           1 DAN       0.0584
     28 H8         26.5271   18.5396   58.3791 H           1 DAN       0.0584
     29 H9         28.1756   21.5885   64.4762 H           1 DAN       0.0467
     30 H10        28.4890   21.1389   62.7832 H           1 DAN       0.0467
     31 H11        28.9891   20.0514   64.1128 H           1 DAN       0.0467
     32 H12        27.7277   18.5892   62.7084 H           1 DAN       0.1858
     33 H13        23.5807   19.2667   63.5671 H           1 DAN       0.2127
     34 H14        25.3038   15.4881   59.3218 H           1 DAN       0.2100
     35 H15        29.1002   18.2931   60.2794 H           1 DAN       0.2100
     36 H16        26.6674   17.2045   56.6574 H           1 DAN       0.2095
@<TRIPOS>BOND
     1     1    14  ar
     2     1    13  ar
     3     1     2   1
     4     2    16   1
     5     2     3   2
     6     3     4   1
     7     4    15   1
     8     4     5   1
     9     5    12   1
    10     5     6   1
    11     6    16   1
    12     6     7   1
    13     7    17   1
    14     7     8   1
    15     8    18   1
    16     8     9   1
    17     9    19   1
    18    12    10  am
    19    10    20   2
    20    10    11   1
    21     3    21   1
    22     4    22   1
    23     5    23   1
    24     6    24   1
    25     7    25   1
    26     8    26   1
    27     9    27   1
    28     9    28   1
    29    11    29   1
    30    11    30   1
    31    11    31   1
    32    12    32   1
    33    15    33   1
    34    17    34   1
    35    18    35   1
    36    19    36   1
@<TRIPOS>SUBSTRUCTURE
     1  DAN      1

