@<TRIPOS>MOLECULE
1f8b_ligand_071
    36    36
SMALL
GAST_HUCK
****
This file was generated by PARSER (from files_GN.cpp)

@<TRIPOS>ATOM
      1 C1         23.6485   19.3137   64.7736 C.2         1 DAN       0.0809
      2 C2         24.9128   19.8534   64.9233 C.2         1 DAN       0.1088
      3 C3         26.0230   19.2362   64.4780 C.2         1 DAN      -0.0276
      4 C4         27.3155   19.8535   64.7096 C.3         1 DAN       0.1003
      5 C5         27.3704   20.3834   66.1740 C.3         1 DAN       0.1064
      6 C6         26.0746   21.2257   66.5162 C.3         1 DAN       0.1321
      7 C7         25.5505   21.0245   67.9869 C.3         1 DAN       0.1154
      8 C8         25.3824   22.3408   68.8040 C.3         1 DAN       0.1068
      9 C9         24.3200   23.3311   68.2634 C.3         1 DAN       0.0727
     10 C10        29.0413   22.2229   66.0732 C.2         1 DAN       0.1734
     11 C11        30.3182   22.7042   66.5438 C.3         1 DAN       0.0257
     12 N5         28.6063   21.0431   66.5005 N.am        1 DAN      -0.2770
     13 O1A        22.5516   20.0729   64.9907 O.co2       1 DAN      -0.5623
     14 O1B        23.4442   18.0062   64.4737 O.co2       1 DAN      -0.5623
     15 O4         28.3763   18.9297   64.4607 O.3         1 DAN      -0.3807
     16 O6         25.0159   21.0567   65.5256 O.3         1 DAN      -0.3189
     17 O7         24.3303   20.2814   67.9805 O.3         1 DAN      -0.3861
     18 O8         25.0790   22.0032   70.1599 O.3         1 DAN      -0.3869
     19 O9         22.9958   22.8076   68.3440 O.3         1 DAN      -0.3924
     20 O10        28.3774   22.9251   65.3185 O.2         1 DAN      -0.3974
     21 H1         25.9786   18.3423   64.0443 H           1 DAN       0.0480
     22 H2         27.4282   20.6876   64.0134 H           1 DAN       0.0740
     23 H3         27.3710   19.4828   66.7929 H           1 DAN       0.0632
     24 H4         26.3492   22.2772   66.4024 H           1 DAN       0.0697
     25 H5         26.2661   20.4215   68.5500 H           1 DAN       0.0650
     26 H6         26.3486   22.8561   68.8182 H           1 DAN       0.0643
     27 H7         24.5255   23.5929   67.2241 H           1 DAN       0.0584
     28 H8         24.3584   24.2565   68.8464 H           1 DAN       0.0584
     29 H9         30.5036   23.7324   66.2165 H           1 DAN       0.0467
     30 H10        31.1204   22.0687   66.1526 H           1 DAN       0.0467
     31 H11        30.3431   22.6843   67.6382 H           1 DAN       0.0467
     32 H12        29.1960   20.5763   67.1149 H           1 DAN       0.1858
     33 H13        28.2434   18.1957   65.0935 H           1 DAN       0.2127
     34 H14        24.1331   20.0934   68.9337 H           1 DAN       0.2100
     35 H15        25.1173   22.8513   70.6558 H           1 DAN       0.2100
     36 H16        22.8281   22.6849   69.2984 H           1 DAN       0.2095
@<TRIPOS>BOND
     1     1    14  ar
     2     1    13  ar
     3     1     2   1
     4     2    16   1
     5     2     3   2
     6     3     4   1
     7     4    15   1
     8     4     5   1
     9     5    12   1
    10     5     6   1
    11     6    16   1
    12     6     7   1
    13     7    17   1
    14     7     8   1
    15     8    18   1
    16     8     9   1
    17     9    19   1
    18    12    10  am
    19    10    20   2
    20    10    11   1
    21     3    21   1
    22     4    22   1
    23     5    23   1
    24     6    24   1
    25     7    25   1
    26     8    26   1
    27     9    27   1
    28     9    28   1
    29    11    29   1
    30    11    30   1
    31    11    31   1
    32    12    32   1
    33    15    33   1
    34    17    34   1
    35    18    35   1
    36    19    36   1
@<TRIPOS>SUBSTRUCTURE
     1  DAN      1

