@<TRIPOS>MOLECULE
1f8b_ligand_016
    36    36
SMALL
GAST_HUCK
****
This file was generated by PARSER (from files_GN.cpp)

@<TRIPOS>ATOM
      1 C1         25.3334   19.8919   64.5692 C.2         1 DAN       0.0809
      2 C2         26.4837   19.7003   63.8279 C.2         1 DAN       0.1088
      3 C3         27.5793   20.4886   63.9725 C.2         1 DAN      -0.0276
      4 C4         28.8430   20.1723   63.3247 C.3         1 DAN       0.1003
      5 C5         28.7234   19.1197   62.1770 C.3         1 DAN       0.1064
      6 C6         27.6544   18.0348   62.5514 C.3         1 DAN       0.1321
      7 C7         27.3565   17.0139   61.4073 C.3         1 DAN       0.1154
      8 C8         25.9954   16.2480   61.5136 C.3         1 DAN       0.1068
      9 C9         25.9111   15.1908   62.6449 C.3         1 DAN       0.0727
     10 C10        30.8132   17.8055   62.4530 C.2         1 DAN       0.1734
     11 C11        32.0377   17.3574   61.8176 C.3         1 DAN       0.0257
     12 N5         29.9914   18.5927   61.7648 N.am        1 DAN      -0.2770
     13 O1A        24.5971   21.0438   64.4885 O.co2       1 DAN      -0.5623
     14 O1B        24.8197   18.8676   65.3119 O.co2       1 DAN      -0.5623
     15 O4         29.4503   21.3697   62.8453 O.3         1 DAN      -0.3807
     16 O6         26.4311   18.7009   62.9184 O.3         1 DAN      -0.3189
     17 O7         27.3761   17.6894   60.1493 O.3         1 DAN      -0.3861
     18 O8         24.9042   17.1625   61.6580 O.3         1 DAN      -0.3869
     19 O9         26.9716   14.2401   62.5836 O.3         1 DAN      -0.3924
     20 O10        30.5675   17.4381   63.5936 O.2         1 DAN      -0.3974
     21 H1         27.5833   21.1986   64.6809 H           1 DAN       0.0480
     22 H2         29.4911   19.7820   64.1115 H           1 DAN       0.0740
     23 H3         28.3316   19.6629   61.3101 H           1 DAN       0.0632
     24 H4         28.0054   17.4750   63.4269 H           1 DAN       0.0697
     25 H5         28.1660   16.2793   61.3919 H           1 DAN       0.0650
     26 H6         25.8427   15.7219   60.5700 H           1 DAN       0.0643
     27 H7         24.9688   14.6459   62.5576 H           1 DAN       0.0584
     28 H8         25.9320   15.6671   63.6235 H           1 DAN       0.0584
     29 H9         32.6285   16.7321   62.4914 H           1 DAN       0.0467
     30 H10        32.6415   18.2225   61.5329 H           1 DAN       0.0467
     31 H11        31.7993   16.7753   60.9231 H           1 DAN       0.0467
     32 H12        30.2773   18.8312   60.8688 H           1 DAN       0.1858
     33 H13        29.1199   21.5190   61.9339 H           1 DAN       0.2127
     34 H14        27.5292   16.9908   59.4742 H           1 DAN       0.2100
     35 H15        24.9385   17.7621   60.8745 H           1 DAN       0.2100
     36 H16        26.8910   13.8175   61.6989 H           1 DAN       0.2095
@<TRIPOS>BOND
     1     1    14  ar
     2     1    13  ar
     3     1     2   1
     4     2    16   1
     5     2     3   2
     6     3     4   1
     7     4    15   1
     8     4     5   1
     9     5    12   1
    10     5     6   1
    11     6    16   1
    12     6     7   1
    13     7    17   1
    14     7     8   1
    15     8    18   1
    16     8     9   1
    17     9    19   1
    18    12    10  am
    19    10    20   2
    20    10    11   1
    21     3    21   1
    22     4    22   1
    23     5    23   1
    24     6    24   1
    25     7    25   1
    26     8    26   1
    27     9    27   1
    28     9    28   1
    29    11    29   1
    30    11    30   1
    31    11    31   1
    32    12    32   1
    33    15    33   1
    34    17    34   1
    35    18    35   1
    36    19    36   1
@<TRIPOS>SUBSTRUCTURE
     1  DAN      1

