@<TRIPOS>MOLECULE
1f8b_ligand_037
    36    36
SMALL
GAST_HUCK
****
This file was generated by PARSER (from files_GN.cpp)

@<TRIPOS>ATOM
      1 C1         25.8020   14.9750   63.1350 C.2         1 DAN       0.0809
      2 C2         26.2710   16.0620   63.8428 C.2         1 DAN       0.1088
      3 C3         27.5766   16.2846   64.0824 C.2         1 DAN      -0.0276
      4 C4         27.9943   17.4514   64.8321 C.3         1 DAN       0.1003
      5 C5         27.0988   18.7250   64.5826 C.3         1 DAN       0.1064
      6 C6         25.6685   18.3302   64.0547 C.3         1 DAN       0.1321
      7 C7         24.4578   19.1908   64.5653 C.3         1 DAN       0.1154
      8 C8         24.3277   19.3702   66.1221 C.3         1 DAN       0.1068
      9 C9         24.9941   20.6298   66.7705 C.3         1 DAN       0.0727
     10 C10        28.8888   20.2543   63.8120 C.2         1 DAN       0.1734
     11 C11        29.3258   21.1691   62.7790 C.3         1 DAN       0.0257
     12 N5         27.7076   19.6695   63.6831 N.am        1 DAN      -0.2770
     13 O1A        24.5677   15.0033   62.5787 O.co2       1 DAN      -0.5623
     14 O1B        26.5057   13.8212   63.0124 O.co2       1 DAN      -0.5623
     15 O4         27.9743   17.0973   66.2205 O.3         1 DAN      -0.3807
     16 O6         25.3672   16.9430   64.3365 O.3         1 DAN      -0.3189
     17 O7         24.4161   20.4495   63.8794 O.3         1 DAN      -0.3861
     18 O8         22.9326   19.3875   66.4692 O.3         1 DAN      -0.3869
     19 O9         25.8062   21.4155   65.8848 O.3         1 DAN      -0.3924
     20 O10        29.6223   20.0343   64.7730 O.2         1 DAN      -0.3974
     21 H1         28.2676   15.6635   63.7227 H           1 DAN       0.0480
     22 H2         29.0383   17.6637   64.5893 H           1 DAN       0.0740
     23 H3         26.9974   19.2257   65.5414 H           1 DAN       0.0632
     24 H4         25.6578   18.4258   62.9596 H           1 DAN       0.0697
     25 H5         23.5555   18.6593   64.2197 H           1 DAN       0.0650
     26 H6         24.7444   18.4776   66.5980 H           1 DAN       0.0643
     27 H7         25.6099   20.3127   67.6263 H           1 DAN       0.0584
     28 H8         24.2162   21.2910   67.1577 H           1 DAN       0.0584
     29 H9         30.3597   21.4923   62.9348 H           1 DAN       0.0467
     30 H10        28.6835   22.0563   62.7725 H           1 DAN       0.0467
     31 H11        29.2647   20.6809   61.8018 H           1 DAN       0.0467
     32 H12        27.1839   19.9360   62.9102 H           1 DAN       0.1858
     33 H13        27.1053   16.6596   66.3766 H           1 DAN       0.2127
     34 H14        24.1922   20.1827   62.9524 H           1 DAN       0.2100
     35 H15        22.9042   19.1367   67.4244 H           1 DAN       0.2100
     36 H16        26.7022   21.4276   66.2924 H           1 DAN       0.2095
@<TRIPOS>BOND
     1     1    14  ar
     2     1    13  ar
     3     1     2   1
     4     2    16   1
     5     2     3   2
     6     3     4   1
     7     4    15   1
     8     4     5   1
     9     5    12   1
    10     5     6   1
    11     6    16   1
    12     6     7   1
    13     7    17   1
    14     7     8   1
    15     8    18   1
    16     8     9   1
    17     9    19   1
    18    12    10  am
    19    10    20   2
    20    10    11   1
    21     3    21   1
    22     4    22   1
    23     5    23   1
    24     6    24   1
    25     7    25   1
    26     8    26   1
    27     9    27   1
    28     9    28   1
    29    11    29   1
    30    11    30   1
    31    11    31   1
    32    12    32   1
    33    15    33   1
    34    17    34   1
    35    18    35   1
    36    19    36   1
@<TRIPOS>SUBSTRUCTURE
     1  DAN      1

