@<TRIPOS>MOLECULE
1f8b_ligand_048
    36    36
SMALL
GAST_HUCK
****
This file was generated by PARSER (from files_GN.cpp)

@<TRIPOS>ATOM
      1 C1         24.2827   20.2013   65.3614 C.2         1 DAN       0.0809
      2 C2         25.4953   19.6389   65.7153 C.2         1 DAN       0.1088
      3 C3         25.5984   18.4651   66.3644 C.2         1 DAN      -0.0276
      4 C4         26.8840   17.8580   66.6658 C.3         1 DAN       0.1003
      5 C5         28.1050   18.8309   66.5413 C.3         1 DAN       0.1064
      6 C6         27.8906   19.8282   65.3652 C.3         1 DAN       0.1321
      7 C7         28.9017   21.0134   65.2211 C.3         1 DAN       0.1154
      8 C8         28.7630   22.2129   66.2241 C.3         1 DAN       0.1068
      9 C9         29.6067   22.1646   67.5319 C.3         1 DAN       0.0727
     10 C10        29.7441   17.1486   65.6943 C.2         1 DAN       0.1734
     11 C11        31.0650   16.5929   65.8406 C.3         1 DAN       0.0257
     12 N5         29.3652   18.1290   66.5079 N.am        1 DAN      -0.2770
     13 O1A        24.2746   21.2019   64.4525 O.co2       1 DAN      -0.5623
     14 O1B        23.0825   19.6978   65.7378 O.co2       1 DAN      -0.5623
     15 O4         26.8343   17.2854   67.9706 O.3         1 DAN      -0.3807
     16 O6         26.5714   20.4048   65.4587 O.3         1 DAN      -0.3189
     17 O7         30.2558   20.5606   65.1478 O.3         1 DAN      -0.3861
     18 O8         29.0591   23.4157   65.5091 O.3         1 DAN      -0.3869
     19 O9         29.0404   22.9774   68.5518 O.3         1 DAN      -0.3924
     20 O10        29.0145   16.6834   64.8292 O.2         1 DAN      -0.3974
     21 H1         24.7806   17.9168   66.5263 H           1 DAN       0.0480
     22 H2         26.9759   17.0253   65.9726 H           1 DAN       0.0740
     23 H3         28.0876   19.4334   67.4537 H           1 DAN       0.0632
     24 H4         27.9332   19.2564   64.4370 H           1 DAN       0.0697
     25 H5         28.6920   21.4247   64.2268 H           1 DAN       0.0650
     26 H6         27.7093   22.3083   66.4956 H           1 DAN       0.0643
     27 H7         30.6249   22.4983   67.3532 H           1 DAN       0.0584
     28 H8         29.6854   21.1644   67.9254 H           1 DAN       0.0584
     29 H9         31.2430   15.7850   65.1280 H           1 DAN       0.0467
     30 H10        31.1922   16.1942   66.8461 H           1 DAN       0.0467
     31 H11        31.8076   17.3704   65.6721 H           1 DAN       0.0467
     32 H12        30.0297   18.4235   67.1502 H           1 DAN       0.1858
     33 H13        27.6414   16.7339   68.0419 H           1 DAN       0.2127
     34 H14        30.4999   20.2920   66.0565 H           1 DAN       0.2100
     35 H15        29.9955   23.3547   65.2251 H           1 DAN       0.2100
     36 H16        28.1914   22.5473   68.7864 H           1 DAN       0.2095
@<TRIPOS>BOND
     1     1    14  ar
     2     1    13  ar
     3     1     2   1
     4     2    16   1
     5     2     3   2
     6     3     4   1
     7     4    15   1
     8     4     5   1
     9     5    12   1
    10     5     6   1
    11     6    16   1
    12     6     7   1
    13     7    17   1
    14     7     8   1
    15     8    18   1
    16     8     9   1
    17     9    19   1
    18    12    10  am
    19    10    20   2
    20    10    11   1
    21     3    21   1
    22     4    22   1
    23     5    23   1
    24     6    24   1
    25     7    25   1
    26     8    26   1
    27     9    27   1
    28     9    28   1
    29    11    29   1
    30    11    30   1
    31    11    31   1
    32    12    32   1
    33    15    33   1
    34    17    34   1
    35    18    35   1
    36    19    36   1
@<TRIPOS>SUBSTRUCTURE
     1  DAN      1

