@<TRIPOS>MOLECULE
1f8b_ligand_013
    36    36
SMALL
GAST_HUCK
****
This file was generated by PARSER (from files_GN.cpp)

@<TRIPOS>ATOM
      1 C1         25.4601   20.3093   65.5390 C.2         1 DAN       0.0809
      2 C2         26.7910   20.6582   65.6269 C.2         1 DAN       0.1088
      3 C3         27.1845   21.7906   66.2491 C.2         1 DAN      -0.0276
      4 C4         28.5746   22.2017   66.3219 C.3         1 DAN       0.1003
      5 C5         29.4790   21.4651   65.2920 C.3         1 DAN       0.1064
      6 C6         29.0566   19.9610   65.1805 C.3         1 DAN       0.1321
      7 C7         29.7886   19.1105   64.0854 C.3         1 DAN       0.1154
      8 C8         29.8447   19.6686   62.6262 C.3         1 DAN       0.1068
      9 C9         28.4908   19.7160   61.8670 C.3         1 DAN       0.0727
     10 C10        31.7009   21.0692   66.3312 C.2         1 DAN       0.1734
     11 C11        33.0818   21.4745   66.3667 C.3         1 DAN       0.0257
     12 N5         30.8759   21.7193   65.5226 N.am        1 DAN      -0.2770
     13 O1A        24.5923   21.0906   64.8518 O.co2       1 DAN      -0.5623
     14 O1B        25.0054   19.1453   66.0737 O.co2       1 DAN      -0.5623
     15 O4         28.6432   23.6050   66.0522 O.3         1 DAN      -0.3807
     16 O6         27.6358   19.8577   64.9478 O.3         1 DAN      -0.3189
     17 O7         31.1222   18.8265   64.5047 O.3         1 DAN      -0.3861
     18 O8         30.4894   20.9393   62.5848 O.3         1 DAN      -0.3869
     19 O9         27.7882   20.9430   62.0614 O.3         1 DAN      -0.3924
     20 O10        31.3502   20.1124   67.0094 O.2         1 DAN      -0.3974
     21 H1         26.5177   22.3361   66.7467 H           1 DAN       0.0480
     22 H2         28.9277   22.0263   67.3409 H           1 DAN       0.0740
     23 H3         29.2520   21.9364   64.3333 H           1 DAN       0.0632
     24 H4         29.2334   19.4755   66.1462 H           1 DAN       0.0697
     25 H5         29.2815   18.1479   64.0364 H           1 DAN       0.0650
     26 H6         30.4965   18.9909   62.0600 H           1 DAN       0.0643
     27 H7         27.8467   18.8960   62.1817 H           1 DAN       0.0584
     28 H8         28.6668   19.6048   60.7962 H           1 DAN       0.0584
     29 H9         33.6952   20.7760   66.9495 H           1 DAN       0.0467
     30 H10        33.1518   22.4712   66.8261 H           1 DAN       0.0467
     31 H11        33.4814   21.5224   65.3481 H           1 DAN       0.0467
     32 H12        31.2461   22.4699   65.0300 H           1 DAN       0.1858
     33 H13        29.1969   23.9922   66.7692 H           1 DAN       0.2127
     34 H14        31.0420   18.2579   65.2963 H           1 DAN       0.2100
     35 H15        30.4115   21.2442   61.6557 H           1 DAN       0.2100
     36 H16        28.2790   21.6012   61.5242 H           1 DAN       0.2095
@<TRIPOS>BOND
     1     1    14  ar
     2     1    13  ar
     3     1     2   1
     4     2    16   1
     5     2     3   2
     6     3     4   1
     7     4    15   1
     8     4     5   1
     9     5    12   1
    10     5     6   1
    11     6    16   1
    12     6     7   1
    13     7    17   1
    14     7     8   1
    15     8    18   1
    16     8     9   1
    17     9    19   1
    18    12    10  am
    19    10    20   2
    20    10    11   1
    21     3    21   1
    22     4    22   1
    23     5    23   1
    24     6    24   1
    25     7    25   1
    26     8    26   1
    27     9    27   1
    28     9    28   1
    29    11    29   1
    30    11    30   1
    31    11    31   1
    32    12    32   1
    33    15    33   1
    34    17    34   1
    35    18    35   1
    36    19    36   1
@<TRIPOS>SUBSTRUCTURE
     1  DAN      1

