@<TRIPOS>MOLECULE
1f8b_ligand_010
    36    36
SMALL
GAST_HUCK
****
This file was generated by PARSER (from files_GN.cpp)

@<TRIPOS>ATOM
      1 C1         24.3616   20.2625   65.6846 C.2         1 DAN       0.0809
      2 C2         25.4958   19.6858   66.2280 C.2         1 DAN       0.1088
      3 C3         25.7124   19.7141   67.5599 C.2         1 DAN      -0.0276
      4 C4         26.9824   19.3401   68.1449 C.3         1 DAN       0.1003
      5 C5         27.9475   18.5657   67.1845 C.3         1 DAN       0.1064
      6 C6         27.7644   19.0324   65.6968 C.3         1 DAN       0.1321
      7 C7         28.5285   20.3586   65.3500 C.3         1 DAN       0.1154
      8 C8         29.9339   20.1321   64.6899 C.3         1 DAN       0.1068
      9 C9         29.9483   20.1624   63.1290 C.3         1 DAN       0.0727
     10 C10        28.3259   16.3124   68.1477 C.2         1 DAN       0.1734
     11 C11        27.8216   14.9694   68.3208 C.3         1 DAN       0.0257
     12 N5         27.6960   17.1511   67.3251 N.am        1 DAN      -0.2770
     13 O1A        23.1407   19.7070   65.9130 O.co2       1 DAN      -0.5623
     14 O1B        24.4902   21.1056   64.6370 O.co2       1 DAN      -0.5623
     15 O4         27.6217   20.5243   68.6069 O.3         1 DAN      -0.3807
     16 O6         26.3609   19.0997   65.3671 O.3         1 DAN      -0.3189
     17 O7         27.7257   21.2355   64.5686 O.3         1 DAN      -0.3861
     18 O8         30.9010   21.0696   65.1822 O.3         1 DAN      -0.3869
     19 O9         30.2193   21.4870   62.6534 O.3         1 DAN      -0.3924
     20 O10        29.2929   16.6690   68.8111 O.2         1 DAN      -0.3974
     21 H1         25.0359   20.1352   68.1580 H           1 DAN       0.0480
     22 H2         26.7863   18.7280   69.0250 H           1 DAN       0.0740
     23 H3         28.9863   18.7684   67.4760 H           1 DAN       0.0632
     24 H4         28.1544   18.2444   65.0426 H           1 DAN       0.0697
     25 H5         28.7078   20.9020   66.2686 H           1 DAN       0.0650
     26 H6         30.3161   19.1542   64.9948 H           1 DAN       0.0643
     27 H7         28.9835   19.8313   62.7221 H           1 DAN       0.0584
     28 H8         30.7219   19.4781   62.7339 H           1 DAN       0.0584
     29 H9         28.4234   14.4075   69.0315 H           1 DAN       0.0467
     30 H10        27.8287   14.4436   67.3664 H           1 DAN       0.0467
     31 H11        26.7979   15.0122   68.6940 H           1 DAN       0.0467
     32 H12        26.9065   16.7970   66.8739 H           1 DAN       0.1858
     33 H13        27.0926   20.8265   69.3828 H           1 DAN       0.2127
     34 H14        27.3605   20.6889   63.8372 H           1 DAN       0.2100
     35 H15        30.7438   21.9132   64.6996 H           1 DAN       0.2100
     36 H16        30.1818   21.4378   61.6723 H           1 DAN       0.2095
@<TRIPOS>BOND
     1     1    14  ar
     2     1    13  ar
     3     1     2   1
     4     2    16   1
     5     2     3   2
     6     3     4   1
     7     4    15   1
     8     4     5   1
     9     5    12   1
    10     5     6   1
    11     6    16   1
    12     6     7   1
    13     7    17   1
    14     7     8   1
    15     8    18   1
    16     8     9   1
    17     9    19   1
    18    12    10  am
    19    10    20   2
    20    10    11   1
    21     3    21   1
    22     4    22   1
    23     5    23   1
    24     6    24   1
    25     7    25   1
    26     8    26   1
    27     9    27   1
    28     9    28   1
    29    11    29   1
    30    11    30   1
    31    11    31   1
    32    12    32   1
    33    15    33   1
    34    17    34   1
    35    18    35   1
    36    19    36   1
@<TRIPOS>SUBSTRUCTURE
     1  DAN      1

