@<TRIPOS>MOLECULE
1f8b_ligand_055
    36    36
SMALL
GAST_HUCK
****
This file was generated by PARSER (from files_GN.cpp)

@<TRIPOS>ATOM
      1 C1         23.3661   19.3868   64.7206 C.2         1 DAN       0.0809
      2 C2         23.9473   20.0339   65.7836 C.2         1 DAN       0.1088
      3 C3         25.1605   20.6209   65.6998 C.2         1 DAN      -0.0276
      4 C4         25.8180   21.2403   66.8339 C.3         1 DAN       0.1003
      5 C5         24.9428   21.2832   68.1299 C.3         1 DAN       0.1064
      6 C6         23.9838   20.0464   68.1794 C.3         1 DAN       0.1321
      7 C7         24.6383   18.6519   68.5009 C.3         1 DAN       0.1154
      8 C8         23.6590   17.5924   69.1058 C.3         1 DAN       0.1068
      9 C9         22.2682   17.5010   68.4291 C.3         1 DAN       0.0727
     10 C10        24.3674   23.6530   68.6081 C.2         1 DAN       0.1734
     11 C11        23.3564   24.6756   68.4695 C.3         1 DAN       0.0257
     12 N5         24.1009   22.4533   68.1132 N.am        1 DAN      -0.2770
     13 O1A        23.9755   18.3301   64.0990 O.co2       1 DAN      -0.5623
     14 O1B        22.1367   19.7517   64.2965 O.co2       1 DAN      -0.5623
     15 O4         27.0319   20.5389   67.0878 O.3         1 DAN      -0.3807
     16 O6         23.2383   20.0474   66.9345 O.3         1 DAN      -0.3189
     17 O7         25.2961   18.1252   67.3385 O.3         1 DAN      -0.3861
     18 O8         24.2661   16.3011   69.0812 O.3         1 DAN      -0.3869
     19 O9         21.3964   18.5149   68.9241 O.3         1 DAN      -0.3924
     20 O10        25.4241   23.9125   69.1798 O.2         1 DAN      -0.3974
     21 H1         25.6659   20.5721   64.8302 H           1 DAN       0.0480
     22 H2         26.0871   22.2562   66.5464 H           1 DAN       0.0740
     23 H3         25.5746   21.2922   69.0318 H           1 DAN       0.0632
     24 H4         23.2825   20.2465   68.9924 H           1 DAN       0.0697
     25 H5         25.4304   18.8087   69.2519 H           1 DAN       0.0650
     26 H6         23.5064   17.8222   70.1634 H           1 DAN       0.0643
     27 H7         21.8108   16.5293   68.6722 H           1 DAN       0.0584
     28 H8         22.3454   17.5733   67.3441 H           1 DAN       0.0584
     29 H9         23.6598   25.6116   68.9404 H           1 DAN       0.0467
     30 H10        22.4275   24.3375   68.9389 H           1 DAN       0.0467
     31 H11        23.1677   24.8644   67.4120 H           1 DAN       0.0467
     32 H12        23.2420   22.3509   67.6944 H           1 DAN       0.1858
     33 H13        27.5207   21.1159   67.7437 H           1 DAN       0.2127
     34 H14        25.4769   17.1704   67.4883 H           1 DAN       0.2100
     35 H15        24.0119   15.9054   68.2194 H           1 DAN       0.2100
     36 H16        20.4981   18.3151   68.5485 H           1 DAN       0.2095
@<TRIPOS>BOND
     1     1    14  ar
     2     1    13  ar
     3     1     2   1
     4     2    16   1
     5     2     3   2
     6     3     4   1
     7     4    15   1
     8     4     5   1
     9     5    12   1
    10     5     6   1
    11     6    16   1
    12     6     7   1
    13     7    17   1
    14     7     8   1
    15     8    18   1
    16     8     9   1
    17     9    19   1
    18    12    10  am
    19    10    20   2
    20    10    11   1
    21     3    21   1
    22     4    22   1
    23     5    23   1
    24     6    24   1
    25     7    25   1
    26     8    26   1
    27     9    27   1
    28     9    28   1
    29    11    29   1
    30    11    30   1
    31    11    31   1
    32    12    32   1
    33    15    33   1
    34    17    34   1
    35    18    35   1
    36    19    36   1
@<TRIPOS>SUBSTRUCTURE
     1  DAN      1

