@<TRIPOS>MOLECULE
1f8b_ligand_056
    36    36
SMALL
GAST_HUCK
****
This file was generated by PARSER (from files_GN.cpp)

@<TRIPOS>ATOM
      1 C1         29.1107   15.2662   62.2783 C.2         1 DAN       0.0809
      2 C2         28.0314   16.0287   61.8580 C.2         1 DAN       0.1088
      3 C3         26.8688   15.4919   61.4451 C.2         1 DAN      -0.0276
      4 C4         25.8205   16.3521   60.9254 C.3         1 DAN       0.1003
      5 C5         25.7344   17.7333   61.6734 C.3         1 DAN       0.1064
      6 C6         27.0870   18.1301   62.3696 C.3         1 DAN       0.1321
      7 C7         27.4331   19.6523   62.2523 C.3         1 DAN       0.1154
      8 C8         28.3245   20.1617   63.4268 C.3         1 DAN       0.1068
      9 C9         29.0526   21.5078   63.1462 C.3         1 DAN       0.0727
     10 C10        24.1755   16.9394   63.4464 C.2         1 DAN       0.1734
     11 C11        23.0697   17.2862   64.2987 C.3         1 DAN       0.0257
     12 N5         24.6319   17.8454   62.5890 N.am        1 DAN      -0.2770
     13 O1A        29.0404   13.9272   62.4307 O.co2       1 DAN      -0.5623
     14 O1B        30.3053   15.8530   62.5277 O.co2       1 DAN      -0.5623
     15 O4         26.1124   16.5344   59.5431 O.3         1 DAN      -0.3807
     16 O6         28.1934   17.3659   61.8273 O.3         1 DAN      -0.3189
     17 O7         28.0382   19.9065   60.9781 O.3         1 DAN      -0.3861
     18 O8         27.4904   20.3186   64.5784 O.3         1 DAN      -0.3869
     19 O9         30.3613   21.2954   62.6229 O.3         1 DAN      -0.3924
     20 O10        24.6532   15.8093   63.5117 O.2         1 DAN      -0.3974
     21 H1         26.7173   14.5090   61.4623 H           1 DAN       0.0480
     22 H2         24.8586   15.8261   60.9876 H           1 DAN       0.0740
     23 H3         25.5264   18.4814   60.9014 H           1 DAN       0.0632
     24 H4         27.0199   17.8819   63.4330 H           1 DAN       0.0697
     25 H5         26.5059   20.2345   62.2700 H           1 DAN       0.0650
     26 H6         29.0756   19.4045   63.6687 H           1 DAN       0.0643
     27 H7         29.1721   22.0672   64.0728 H           1 DAN       0.0584
     28 H8         28.4817   22.1231   62.4453 H           1 DAN       0.0584
     29 H9         22.6449   16.4073   64.7932 H           1 DAN       0.0467
     30 H10        22.2755   17.7726   63.7227 H           1 DAN       0.0467
     31 H11        23.4116   17.9853   65.0653 H           1 DAN       0.0467
     32 H12        24.1572   18.6884   62.5811 H           1 DAN       0.1858
     33 H13        25.3086   16.2388   59.0576 H           1 DAN       0.2127
     34 H14        28.9628   19.5893   61.0587 H           1 DAN       0.2100
     35 H15        28.1035   20.3966   65.3407 H           1 DAN       0.2100
     36 H16        30.2929   21.4040   61.6565 H           1 DAN       0.2095
@<TRIPOS>BOND
     1     1    14  ar
     2     1    13  ar
     3     1     2   1
     4     2    16   1
     5     2     3   2
     6     3     4   1
     7     4    15   1
     8     4     5   1
     9     5    12   1
    10     5     6   1
    11     6    16   1
    12     6     7   1
    13     7    17   1
    14     7     8   1
    15     8    18   1
    16     8     9   1
    17     9    19   1
    18    12    10  am
    19    10    20   2
    20    10    11   1
    21     3    21   1
    22     4    22   1
    23     5    23   1
    24     6    24   1
    25     7    25   1
    26     8    26   1
    27     9    27   1
    28     9    28   1
    29    11    29   1
    30    11    30   1
    31    11    31   1
    32    12    32   1
    33    15    33   1
    34    17    34   1
    35    18    35   1
    36    19    36   1
@<TRIPOS>SUBSTRUCTURE
     1  DAN      1

