@<TRIPOS>MOLECULE
1f8b_ligand_082
    36    36
SMALL
GAST_HUCK
****
This file was generated by PARSER (from files_GN.cpp)

@<TRIPOS>ATOM
      1 C1         27.7196   20.8495   69.7408 C.2         1 DAN       0.0809
      2 C2         26.5914   21.2013   69.0218 C.2         1 DAN       0.1088
      3 C3         26.6181   21.9943   67.9326 C.2         1 DAN      -0.0276
      4 C4         25.3687   22.3219   67.2653 C.3         1 DAN       0.1003
      5 C5         24.4473   21.0676   67.1485 C.3         1 DAN       0.1064
      6 C6         24.5305   20.1739   68.4486 C.3         1 DAN       0.1321
      7 C7         23.1370   19.8999   69.0945 C.3         1 DAN       0.1154
      8 C8         23.1888   18.9037   70.2958 C.3         1 DAN       0.1068
      9 C9         21.8572   18.8118   71.0804 C.3         1 DAN       0.0727
     10 C10        24.0049   19.6599   65.1706 C.2         1 DAN       0.1734
     11 C11        24.5750   18.8763   64.0999 C.3         1 DAN       0.0257
     12 N5         24.8236   20.3116   65.9837 N.am        1 DAN      -0.2770
     13 O1A        28.9652   21.2404   69.3849 O.co2       1 DAN      -0.5623
     14 O1B        27.6063   20.0842   70.8494 O.co2       1 DAN      -0.5623
     15 O4         24.7034   23.3336   68.0238 O.3         1 DAN      -0.3807
     16 O6         25.3960   20.7516   69.4626 O.3         1 DAN      -0.3189
     17 O7         22.5696   21.1411   69.5246 O.3         1 DAN      -0.3861
     18 O8         23.5148   17.5860   69.8485 O.3         1 DAN      -0.3869
     19 O9         21.0074   17.7773   70.5844 O.3         1 DAN      -0.3924
     20 O10        22.7887   19.6892   65.3160 O.2         1 DAN      -0.3974
     21 H1         27.4756   22.3276   67.5530 H           1 DAN       0.0480
     22 H2         25.5670   22.7443   66.2741 H           1 DAN       0.0740
     23 H3         23.4308   21.4424   67.0037 H           1 DAN       0.0632
     24 H4         24.9700   19.2091   68.1778 H           1 DAN       0.0697
     25 H5         22.4726   19.4733   68.3364 H           1 DAN       0.0650
     26 H6         23.9650   19.2216   70.9983 H           1 DAN       0.0643
     27 H7         21.3298   19.7655   71.0205 H           1 DAN       0.0584
     28 H8         22.0688   18.6096   72.1324 H           1 DAN       0.0584
     29 H9         23.8016   18.3641   63.5231 H           1 DAN       0.0467
     30 H10        25.2509   18.1232   64.5108 H           1 DAN       0.0467
     31 H11        25.1351   19.5270   63.4261 H           1 DAN       0.0467
     32 H12        25.7750   20.2265   65.8050 H           1 DAN       0.1858
     33 H13        25.2011   24.1552   67.8366 H           1 DAN       0.2127
     34 H14        21.9871   21.4389   68.7970 H           1 DAN       0.2100
     35 H15        24.4936   17.5368   69.8467 H           1 DAN       0.2100
     36 H16        20.2091   17.8077   71.1553 H           1 DAN       0.2095
@<TRIPOS>BOND
     1     1    14  ar
     2     1    13  ar
     3     1     2   1
     4     2    16   1
     5     2     3   2
     6     3     4   1
     7     4    15   1
     8     4     5   1
     9     5    12   1
    10     5     6   1
    11     6    16   1
    12     6     7   1
    13     7    17   1
    14     7     8   1
    15     8    18   1
    16     8     9   1
    17     9    19   1
    18    12    10  am
    19    10    20   2
    20    10    11   1
    21     3    21   1
    22     4    22   1
    23     5    23   1
    24     6    24   1
    25     7    25   1
    26     8    26   1
    27     9    27   1
    28     9    28   1
    29    11    29   1
    30    11    30   1
    31    11    31   1
    32    12    32   1
    33    15    33   1
    34    17    34   1
    35    18    35   1
    36    19    36   1
@<TRIPOS>SUBSTRUCTURE
     1  DAN      1

