@<TRIPOS>MOLECULE
1f8b_ligand_015
    36    36
SMALL
GAST_HUCK
****
This file was generated by PARSER (from files_GN.cpp)

@<TRIPOS>ATOM
      1 C1         24.3945   20.3082   65.5526 C.2         1 DAN       0.0809
      2 C2         25.5813   19.6766   65.8555 C.2         1 DAN       0.1088
      3 C3         26.4852   20.2881   66.6452 C.2         1 DAN      -0.0276
      4 C4         27.7573   19.6747   66.9899 C.3         1 DAN       0.1003
      5 C5         27.9478   18.2192   66.4431 C.3         1 DAN       0.1064
      6 C6         27.1764   18.0379   65.0835 C.3         1 DAN       0.1321
      7 C7         27.8790   18.6059   63.7796 C.3         1 DAN       0.1154
      8 C8         26.9859   19.4668   62.8231 C.3         1 DAN       0.1068
      9 C9         27.7369   20.3755   61.8092 C.3         1 DAN       0.0727
     10 C10        27.8972   16.0442   67.6167 C.2         1 DAN       0.1734
     11 C11        27.4116   15.3051   68.7592 C.3         1 DAN       0.0257
     12 N5         27.4845   17.2899   67.4430 N.am        1 DAN      -0.2770
     13 O1A        23.2062   19.7219   65.8356 O.co2       1 DAN      -0.5623
     14 O1B        24.4175   21.1781   64.5108 O.co2       1 DAN      -0.5623
     15 O4         28.7877   20.5424   66.5261 O.3         1 DAN      -0.3807
     16 O6         25.8008   18.4729   65.2872 O.3         1 DAN      -0.3189
     17 O7         29.0775   19.3283   64.0739 O.3         1 DAN      -0.3861
     18 O8         26.0944   18.6119   62.1051 O.3         1 DAN      -0.3869
     19 O9         28.4249   21.4293   62.4906 O.3         1 DAN      -0.3924
     20 O10        28.6671   15.5020   66.8379 O.2         1 DAN      -0.3974
     21 H1         26.2947   21.1964   67.0120 H           1 DAN       0.0480
     22 H2         27.8398   19.6713   68.0816 H           1 DAN       0.0740
     23 H3         29.0151   18.0378   66.2992 H           1 DAN       0.0632
     24 H4         27.0871   16.9605   64.9127 H           1 DAN       0.0697
     25 H5         28.2167   17.7572   63.1841 H           1 DAN       0.0650
     26 H6         26.3695   20.1407   63.4237 H           1 DAN       0.0643
     27 H7         27.0154   20.8354   61.1261 H           1 DAN       0.0584
     28 H8         28.4494   19.7991   61.2177 H           1 DAN       0.0584
     29 H9         27.8207   14.2913   68.7872 H           1 DAN       0.0467
     30 H10        26.3224   15.2345   68.7222 H           1 DAN       0.0467
     31 H11        27.6996   15.8152   69.6814 H           1 DAN       0.0467
     32 H12        26.8729   17.6395   68.1132 H           1 DAN       0.1858
     33 H13        29.6076   20.2100   66.9444 H           1 DAN       0.2127
     34 H14        29.7592   18.6326   64.2241 H           1 DAN       0.2100
     35 H15        26.6556   18.1379   61.4522 H           1 DAN       0.2100
     36 H16        28.8539   21.9545   61.7813 H           1 DAN       0.2095
@<TRIPOS>BOND
     1     1    14  ar
     2     1    13  ar
     3     1     2   1
     4     2    16   1
     5     2     3   2
     6     3     4   1
     7     4    15   1
     8     4     5   1
     9     5    12   1
    10     5     6   1
    11     6    16   1
    12     6     7   1
    13     7    17   1
    14     7     8   1
    15     8    18   1
    16     8     9   1
    17     9    19   1
    18    12    10  am
    19    10    20   2
    20    10    11   1
    21     3    21   1
    22     4    22   1
    23     5    23   1
    24     6    24   1
    25     7    25   1
    26     8    26   1
    27     9    27   1
    28     9    28   1
    29    11    29   1
    30    11    30   1
    31    11    31   1
    32    12    32   1
    33    15    33   1
    34    17    34   1
    35    18    35   1
    36    19    36   1
@<TRIPOS>SUBSTRUCTURE
     1  DAN      1

