@<TRIPOS>MOLECULE
1f8b_ligand_074
    36    36
SMALL
GAST_HUCK
****
This file was generated by PARSER (from files_GN.cpp)

@<TRIPOS>ATOM
      1 C1         25.5019   13.3772   62.2890 C.2         1 DAN       0.0809
      2 C2         26.0696   14.3726   61.5231 C.2         1 DAN       0.1088
      3 C3         27.3910   14.4663   61.2790 C.2         1 DAN      -0.0276
      4 C4         27.8715   15.5753   60.4675 C.3         1 DAN       0.1003
      5 C5         27.1856   16.8938   60.9440 C.3         1 DAN       0.1064
      6 C6         25.6262   16.6808   61.0709 C.3         1 DAN       0.1321
      7 C7         25.0024   17.3474   62.3423 C.3         1 DAN       0.1154
      8 C8         23.4683   17.1083   62.5021 C.3         1 DAN       0.1068
      9 C9         22.8251   17.9303   63.6588 C.3         1 DAN       0.0727
     10 C10        27.5179   18.2717   58.8947 C.2         1 DAN       0.1734
     11 C11        28.0044   19.5330   58.3866 C.3         1 DAN       0.0257
     12 N5         27.5564   18.0699   60.2038 N.am        1 DAN      -0.2770
     13 O1A        24.1977   13.0636   62.1293 O.co2       1 DAN      -0.5623
     14 O1B        26.2093   12.7104   63.2295 O.co2       1 DAN      -0.5623
     15 O4         29.2917   15.6875   60.5284 O.3         1 DAN      -0.3807
     16 O6         25.2350   15.2822   60.9786 O.3         1 DAN      -0.3189
     17 O7         25.6578   16.8943   63.5299 O.3         1 DAN      -0.3861
     18 O8         22.7919   17.3696   61.2714 O.3         1 DAN      -0.3869
     19 O9         22.6900   17.1504   64.8445 O.3         1 DAN      -0.3924
     20 O10        27.1291   17.4174   58.1093 O.2         1 DAN      -0.3974
     21 H1         28.0416   13.8216   61.6719 H           1 DAN       0.0480
     22 H2         27.5975   15.3679   59.4298 H           1 DAN       0.0740
     23 H3         27.5887   17.0762   61.9442 H           1 DAN       0.0632
     24 H4         25.1561   17.1479   60.2017 H           1 DAN       0.0697
     25 H5         25.1821   18.4246   62.2561 H           1 DAN       0.0650
     26 H6         23.3003   16.0471   62.7063 H           1 DAN       0.0643
     27 H7         21.8280   18.2725   63.3749 H           1 DAN       0.0584
     28 H8         23.4190   18.8147   63.9009 H           1 DAN       0.0584
     29 H9         27.9985   19.5577   57.2949 H           1 DAN       0.0467
     30 H10        29.0290   19.6854   58.7255 H           1 DAN       0.0467
     31 H11        27.3819   20.3502   58.7580 H           1 DAN       0.0467
     32 H12        27.9009   18.8075   60.7334 H           1 DAN       0.1858
     33 H13        29.6231   14.9102   60.0306 H           1 DAN       0.2127
     34 H14        25.3798   17.5211   64.2330 H           1 DAN       0.2100
     35 H15        23.2347   18.1502   60.8791 H           1 DAN       0.2100
     36 H16        22.0066   16.4843   64.6172 H           1 DAN       0.2095
@<TRIPOS>BOND
     1     1    14  ar
     2     1    13  ar
     3     1     2   1
     4     2    16   1
     5     2     3   2
     6     3     4   1
     7     4    15   1
     8     4     5   1
     9     5    12   1
    10     5     6   1
    11     6    16   1
    12     6     7   1
    13     7    17   1
    14     7     8   1
    15     8    18   1
    16     8     9   1
    17     9    19   1
    18    12    10  am
    19    10    20   2
    20    10    11   1
    21     3    21   1
    22     4    22   1
    23     5    23   1
    24     6    24   1
    25     7    25   1
    26     8    26   1
    27     9    27   1
    28     9    28   1
    29    11    29   1
    30    11    30   1
    31    11    31   1
    32    12    32   1
    33    15    33   1
    34    17    34   1
    35    18    35   1
    36    19    36   1
@<TRIPOS>SUBSTRUCTURE
     1  DAN      1

