@<TRIPOS>MOLECULE
1f8b_ligand_051
    36    36
SMALL
GAST_HUCK
****
This file was generated by PARSER (from files_GN.cpp)

@<TRIPOS>ATOM
      1 C1         25.5473   19.9665   64.5350 C.2         1 DAN       0.0809
      2 C2         26.7093   20.0301   63.7931 C.2         1 DAN       0.1088
      3 C3         27.8505   20.5700   64.2619 C.2         1 DAN      -0.0276
      4 C4         28.9484   20.7966   63.3422 C.3         1 DAN       0.1003
      5 C5         29.1810   19.5567   62.4176 C.3         1 DAN       0.1064
      6 C6         27.8015   18.9102   61.9856 C.3         1 DAN       0.1321
      7 C7         27.6232   18.7820   60.4388 C.3         1 DAN       0.1154
      8 C8         26.7491   17.5650   60.0003 C.3         1 DAN       0.1068
      9 C9         26.8858   17.1916   58.5006 C.3         1 DAN       0.0727
     10 C10        30.9632   17.8520   62.5784 C.2         1 DAN       0.1734
     11 C11        31.7415   17.0054   63.4517 C.3         1 DAN       0.0257
     12 N5         30.0262   18.6219   63.1127 N.am        1 DAN      -0.2770
     13 O1A        24.6115   20.9447   64.4643 O.co2       1 DAN      -0.5623
     14 O1B        25.1853   18.8132   65.1366 O.co2       1 DAN      -0.5623
     15 O4         28.5898   21.9415   62.5711 O.3         1 DAN      -0.3807
     16 O6         26.6531   19.6334   62.5042 O.3         1 DAN      -0.3189
     17 O7         27.0606   19.9929   59.9274 O.3         1 DAN      -0.3861
     18 O8         27.0990   16.4156   60.7750 O.3         1 DAN      -0.3869
     19 O9         26.2492   18.1325   57.6385 O.3         1 DAN      -0.3924
     20 O10        31.2024   17.8603   61.3774 O.2         1 DAN      -0.3974
     21 H1         27.9466   20.8347   65.2163 H           1 DAN       0.0480
     22 H2         29.8596   21.0550   63.8919 H           1 DAN       0.0740
     23 H3         29.7385   19.9106   61.5441 H           1 DAN       0.0632
     24 H4         27.7444   17.9016   62.4088 H           1 DAN       0.0697
     25 H5         28.6115   18.6690   59.9871 H           1 DAN       0.0650
     26 H6         25.6995   17.7911   60.2015 H           1 DAN       0.0643
     27 H7         26.4234   16.2177   58.3291 H           1 DAN       0.0584
     28 H8         27.9402   17.1214   58.2321 H           1 DAN       0.0584
     29 H9         32.4905   16.4357   62.8976 H           1 DAN       0.0467
     30 H10        31.0833   16.3021   63.9649 H           1 DAN       0.0467
     31 H11        32.2566   17.6171   64.1953 H           1 DAN       0.0467
     32 H12        29.9281   18.5742   64.0774 H           1 DAN       0.1858
     33 H13        29.1632   21.9331   61.7812 H           1 DAN       0.2127
     34 H14        26.6578   20.4450   60.6993 H           1 DAN       0.2100
     35 H15        26.3548   15.7857   60.6634 H           1 DAN       0.2100
     36 H16        26.0797   17.6468   56.8002 H           1 DAN       0.2095
@<TRIPOS>BOND
     1     1    14  ar
     2     1    13  ar
     3     1     2   1
     4     2    16   1
     5     2     3   2
     6     3     4   1
     7     4    15   1
     8     4     5   1
     9     5    12   1
    10     5     6   1
    11     6    16   1
    12     6     7   1
    13     7    17   1
    14     7     8   1
    15     8    18   1
    16     8     9   1
    17     9    19   1
    18    12    10  am
    19    10    20   2
    20    10    11   1
    21     3    21   1
    22     4    22   1
    23     5    23   1
    24     6    24   1
    25     7    25   1
    26     8    26   1
    27     9    27   1
    28     9    28   1
    29    11    29   1
    30    11    30   1
    31    11    31   1
    32    12    32   1
    33    15    33   1
    34    17    34   1
    35    18    35   1
    36    19    36   1
@<TRIPOS>SUBSTRUCTURE
     1  DAN      1

