@<TRIPOS>MOLECULE
1f8b_ligand_043
    36    36
SMALL
GAST_HUCK
****
This file was generated by PARSER (from files_GN.cpp)

@<TRIPOS>ATOM
      1 C1         28.7618   20.8437   66.8955 C.2         1 DAN       0.0809
      2 C2         28.9067   20.4232   65.5832 C.2         1 DAN       0.1088
      3 C3         29.7575   21.0006   64.7115 C.2         1 DAN      -0.0276
      4 C4         29.7958   20.5285   63.3347 C.3         1 DAN       0.1003
      5 C5         28.3356   20.3346   62.8298 C.3         1 DAN       0.1064
      6 C6         27.5476   19.4279   63.8504 C.3         1 DAN       0.1321
      7 C7         26.0299   19.7989   63.9814 C.3         1 DAN       0.1154
      8 C8         25.1161   18.5822   64.3626 C.3         1 DAN       0.1068
      9 C9         23.8741   18.8961   65.2415 C.3         1 DAN       0.0727
     10 C10        27.6493   20.1634   60.4573 C.2         1 DAN       0.1734
     11 C11        27.7506   19.4065   59.2284 C.3         1 DAN       0.0257
     12 N5         28.3252   19.7439   61.5174 N.am        1 DAN      -0.2770
     13 O1A        27.8065   20.2971   67.6843 O.co2       1 DAN      -0.5623
     14 O1B        29.5019   21.8400   67.4291 O.co2       1 DAN      -0.5623
     15 O4         30.5106   21.4507   62.5129 O.3         1 DAN      -0.3807
     16 O6         28.1562   19.3745   65.1742 O.3         1 DAN      -0.3189
     17 O7         25.8936   20.8791   64.9057 O.3         1 DAN      -0.3861
     18 O8         24.6825   17.9303   63.1670 O.3         1 DAN      -0.3869
     19 O9         23.2031   20.1047   64.8847 O.3         1 DAN      -0.3924
     20 O10        26.9368   21.1567   60.4886 O.2         1 DAN      -0.3974
     21 H1         30.2893   21.8013   64.9684 H           1 DAN       0.0480
     22 H2         30.3281   19.5721   63.3114 H           1 DAN       0.0740
     23 H3         27.8817   21.3306   62.8076 H           1 DAN       0.0632
     24 H4         27.6122   18.3977   63.4876 H           1 DAN       0.0697
     25 H5         25.6797   20.1914   63.0243 H           1 DAN       0.0650
     26 H6         25.7066   17.8491   64.9153 H           1 DAN       0.0643
     27 H7         24.1782   18.9767   66.2872 H           1 DAN       0.0584
     28 H8         23.1632   18.0674   65.1692 H           1 DAN       0.0584
     29 H9         27.1635   19.8597   58.4275 H           1 DAN       0.0467
     30 H10        27.3877   18.3906   59.3913 H           1 DAN       0.0467
     31 H11        28.7915   19.3643   58.9072 H           1 DAN       0.0467
     32 H12        28.8437   18.9300   61.4081 H           1 DAN       0.1858
     33 H13        30.6570   20.9910   61.6613 H           1 DAN       0.2127
     34 H14        26.0037   20.4743   65.7996 H           1 DAN       0.2100
     35 H15        24.1311   18.5941   62.6954 H           1 DAN       0.2100
     36 H16        23.0592   20.0469   63.9174 H           1 DAN       0.2095
@<TRIPOS>BOND
     1     1    14  ar
     2     1    13  ar
     3     1     2   1
     4     2    16   1
     5     2     3   2
     6     3     4   1
     7     4    15   1
     8     4     5   1
     9     5    12   1
    10     5     6   1
    11     6    16   1
    12     6     7   1
    13     7    17   1
    14     7     8   1
    15     8    18   1
    16     8     9   1
    17     9    19   1
    18    12    10  am
    19    10    20   2
    20    10    11   1
    21     3    21   1
    22     4    22   1
    23     5    23   1
    24     6    24   1
    25     7    25   1
    26     8    26   1
    27     9    27   1
    28     9    28   1
    29    11    29   1
    30    11    30   1
    31    11    31   1
    32    12    32   1
    33    15    33   1
    34    17    34   1
    35    18    35   1
    36    19    36   1
@<TRIPOS>SUBSTRUCTURE
     1  DAN      1

