@<TRIPOS>MOLECULE
1f8b_ligand_061
    36    36
SMALL
GAST_HUCK
****
This file was generated by PARSER (from files_GN.cpp)

@<TRIPOS>ATOM
      1 C1         27.2747   14.0505   61.2538 C.2         1 DAN       0.0809
      2 C2         27.6689   15.3404   61.5290 C.2         1 DAN       0.1088
      3 C3         28.8796   15.8004   61.1304 C.2         1 DAN      -0.0276
      4 C4         29.3284   17.1455   61.4424 C.3         1 DAN       0.1003
      5 C5         28.4450   17.8548   62.5155 C.3         1 DAN       0.1064
      6 C6         26.9580   17.5190   62.1985 C.3         1 DAN       0.1321
      7 C7         25.9201   18.2207   63.1075 C.3         1 DAN       0.1154
      8 C8         24.5126   17.5460   63.1174 C.3         1 DAN       0.1068
      9 C9         23.4848   18.2907   64.0264 C.3         1 DAN       0.0727
     10 C10        29.5249   19.9155   63.3607 C.2         1 DAN       0.1734
     11 C11        29.6719   21.3400   63.2237 C.3         1 DAN       0.0257
     12 N5         28.7063   19.2662   62.5314 N.am        1 DAN      -0.2770
     13 O1A        26.9723   13.2001   62.2619 O.co2       1 DAN      -0.5623
     14 O1B        26.8682   13.7037   60.0066 O.co2       1 DAN      -0.5623
     15 O4         30.6821   17.0806   61.8899 O.3         1 DAN      -0.3807
     16 O6         26.8317   16.0834   62.2922 O.3         1 DAN      -0.3189
     17 O7         26.4161   18.3228   64.4454 O.3         1 DAN      -0.3861
     18 O8         23.9771   17.3976   61.7903 O.3         1 DAN      -0.3869
     19 O9         22.1620   18.3325   63.4761 O.3         1 DAN      -0.3924
     20 O10        30.1899   19.3254   64.2107 O.2         1 DAN      -0.3974
     21 H1         29.4540   15.2522   60.5414 H           1 DAN       0.0480
     22 H2         29.3042   17.7282   60.5174 H           1 DAN       0.0740
     23 H3         28.6768   17.4113   63.4967 H           1 DAN       0.0632
     24 H4         26.7535   17.8337   61.1719 H           1 DAN       0.0697
     25 H5         25.7843   19.2375   62.7322 H           1 DAN       0.0650
     26 H6         24.6222   16.5281   63.5042 H           1 DAN       0.0643
     27 H7         23.7922   19.3312   64.1756 H           1 DAN       0.0584
     28 H8         23.4316   17.7985   65.0076 H           1 DAN       0.0584
     29 H9         30.3745   21.7459   63.9630 H           1 DAN       0.0467
     30 H10        28.7040   21.8304   63.3736 H           1 DAN       0.0467
     31 H11        30.0461   21.5833   62.2205 H           1 DAN       0.0467
     32 H12        28.2697   19.8010   61.8459 H           1 DAN       0.1858
     33 H13        31.1069   17.9053   61.5597 H           1 DAN       0.2127
     34 H14        26.4133   17.4013   64.7897 H           1 DAN       0.2100
     35 H15        24.2283   18.1936   61.2826 H           1 DAN       0.2100
     36 H16        21.8298   17.4065   63.5280 H           1 DAN       0.2095
@<TRIPOS>BOND
     1     1    14  ar
     2     1    13  ar
     3     1     2   1
     4     2    16   1
     5     2     3   2
     6     3     4   1
     7     4    15   1
     8     4     5   1
     9     5    12   1
    10     5     6   1
    11     6    16   1
    12     6     7   1
    13     7    17   1
    14     7     8   1
    15     8    18   1
    16     8     9   1
    17     9    19   1
    18    12    10  am
    19    10    20   2
    20    10    11   1
    21     3    21   1
    22     4    22   1
    23     5    23   1
    24     6    24   1
    25     7    25   1
    26     8    26   1
    27     9    27   1
    28     9    28   1
    29    11    29   1
    30    11    30   1
    31    11    31   1
    32    12    32   1
    33    15    33   1
    34    17    34   1
    35    18    35   1
    36    19    36   1
@<TRIPOS>SUBSTRUCTURE
     1  DAN      1

