@<TRIPOS>MOLECULE
1f8b_ligand_021
    36    36
SMALL
GAST_HUCK
****
This file was generated by PARSER (from files_GN.cpp)

@<TRIPOS>ATOM
      1 C1         28.4072   21.6842   65.7412 C.2         1 DAN       0.0809
      2 C2         27.8966   20.8013   64.8047 C.2         1 DAN       0.1088
      3 C3         28.1859   20.8782   63.4912 C.2         1 DAN      -0.0276
      4 C4         27.6478   19.9207   62.5411 C.3         1 DAN       0.1003
      5 C5         26.2152   19.4761   62.9417 C.3         1 DAN       0.1064
      6 C6         26.1739   19.0809   64.4580 C.3         1 DAN       0.1321
      7 C7         24.7377   19.1083   65.0857 C.3         1 DAN       0.1154
      8 C8         24.7181   18.9336   66.6370 C.3         1 DAN       0.1068
      9 C9         23.4273   18.2337   67.1447 C.3         1 DAN       0.0727
     10 C10        25.9426   17.2044   61.9515 C.2         1 DAN       0.1734
     11 C11        25.2791   16.4318   60.9296 C.3         1 DAN       0.0257
     12 N5         25.6500   18.4943   62.0498 N.am        1 DAN      -0.2770
     13 O1A        28.7885   21.2370   66.9621 O.co2       1 DAN      -0.5623
     14 O1B        28.5358   23.0106   65.5069 O.co2       1 DAN      -0.5623
     15 O4         27.5885   20.4885   61.2311 O.3         1 DAN      -0.3807
     16 O6         27.0929   19.8317   65.3040 O.3         1 DAN      -0.3189
     17 O7         24.0439   20.3235   64.7650 O.3         1 DAN      -0.3861
     18 O8         25.8815   18.2540   67.1068 O.3         1 DAN      -0.3869
     19 O9         23.6894   17.3031   68.1870 O.3         1 DAN      -0.3924
     20 O10        26.7577   16.6562   62.6832 O.2         1 DAN      -0.3974
     21 H1         28.7863   21.6014   63.1474 H           1 DAN       0.0480
     22 H2         28.3242   19.0655   62.5143 H           1 DAN       0.0740
     23 H3         25.5972   20.3657   62.8137 H           1 DAN       0.0632
     24 H4         26.5296   18.0484   64.5306 H           1 DAN       0.0697
     25 H5         24.1761   18.2782   64.6364 H           1 DAN       0.0650
     26 H6         24.7591   19.9242   67.0918 H           1 DAN       0.0643
     27 H7         22.9453   17.6819   66.3338 H           1 DAN       0.0584
     28 H8         22.7293   18.9890   67.5139 H           1 DAN       0.0584
     29 H9         25.6111   15.3861   60.9326 H           1 DAN       0.0467
     30 H10        25.4969   16.8517   59.9470 H           1 DAN       0.0467
     31 H11        24.2005   16.4566   61.0931 H           1 DAN       0.0467
     32 H12        25.0175   18.8289   61.3902 H           1 DAN       0.1858
     33 H13        28.3357   21.1160   61.1606 H           1 DAN       0.2127
     34 H14        23.6465   20.1540   63.8763 H           1 DAN       0.2100
     35 H15        25.7912   17.3355   66.7959 H           1 DAN       0.2100
     36 H16        24.0081   16.5004   67.7136 H           1 DAN       0.2095
@<TRIPOS>BOND
     1     1    14  ar
     2     1    13  ar
     3     1     2   1
     4     2    16   1
     5     2     3   2
     6     3     4   1
     7     4    15   1
     8     4     5   1
     9     5    12   1
    10     5     6   1
    11     6    16   1
    12     6     7   1
    13     7    17   1
    14     7     8   1
    15     8    18   1
    16     8     9   1
    17     9    19   1
    18    12    10  am
    19    10    20   2
    20    10    11   1
    21     3    21   1
    22     4    22   1
    23     5    23   1
    24     6    24   1
    25     7    25   1
    26     8    26   1
    27     9    27   1
    28     9    28   1
    29    11    29   1
    30    11    30   1
    31    11    31   1
    32    12    32   1
    33    15    33   1
    34    17    34   1
    35    18    35   1
    36    19    36   1
@<TRIPOS>SUBSTRUCTURE
     1  DAN      1

