@<TRIPOS>MOLECULE
1f8b_ligand_078
    36    36
SMALL
GAST_HUCK
****
This file was generated by PARSER (from files_GN.cpp)

@<TRIPOS>ATOM
      1 C1         30.4081   18.1098   61.8842 C.2         1 DAN       0.0809
      2 C2         29.5659   18.9621   62.5356 C.2         1 DAN       0.1088
      3 C3         28.5256   19.5709   61.9281 C.2         1 DAN      -0.0276
      4 C4         27.7515   20.5363   62.6735 C.3         1 DAN       0.1003
      5 C5         27.4647   20.0377   64.1445 C.3         1 DAN       0.1064
      6 C6         28.5937   19.0766   64.6682 C.3         1 DAN       0.1321
      7 C7         28.9981   19.2650   66.1595 C.3         1 DAN       0.1154
      8 C8         27.8816   18.8749   67.1855 C.3         1 DAN       0.1068
      9 C9         28.3284   18.8543   68.6715 C.3         1 DAN       0.0727
     10 C10        25.0179   19.9617   64.4687 C.2         1 DAN       0.1734
     11 C11        23.8431   19.1138   64.4912 C.3         1 DAN       0.0257
     12 N5         26.1836   19.3962   64.1967 N.am        1 DAN      -0.2770
     13 O1A        31.6998   18.4806   61.6304 O.co2       1 DAN      -0.5623
     14 O1B        29.9556   16.9569   61.3142 O.co2       1 DAN      -0.5623
     15 O4         28.5024   21.7508   62.7254 O.3         1 DAN      -0.3807
     16 O6         29.7848   19.2110   63.8553 O.3         1 DAN      -0.3189
     17 O7         30.1614   18.4811   66.4102 O.3         1 DAN      -0.3861
     18 O8         26.7793   19.7754   67.0942 O.3         1 DAN      -0.3869
     19 O9         29.2178   17.7695   68.9439 O.3         1 DAN      -0.3924
     20 O10        24.8925   21.1544   64.7147 O.2         1 DAN      -0.3974
     21 H1         28.3110   19.3958   60.9734 H           1 DAN       0.0480
     22 H2         26.8229   20.7470   62.1298 H           1 DAN       0.0740
     23 H3         27.4506   20.9364   64.7739 H           1 DAN       0.0632
     24 H4         28.2565   18.0389   64.5749 H           1 DAN       0.0697
     25 H5         29.2791   20.3121   66.3320 H           1 DAN       0.0650
     26 H6         27.5049   17.8753   66.9390 H           1 DAN       0.0643
     27 H7         27.4513   18.7309   69.3194 H           1 DAN       0.0584
     28 H8         28.8210   19.7950   68.9309 H           1 DAN       0.0584
     29 H9         22.9274   19.6871   64.6529 H           1 DAN       0.0467
     30 H10        23.9431   18.3762   65.2856 H           1 DAN       0.0467
     31 H11        23.7538   18.5871   63.5307 H           1 DAN       0.0467
     32 H12        26.1586   18.4437   63.9906 H           1 DAN       0.1858
     33 H13        28.6098   22.0508   61.7957 H           1 DAN       0.2127
     34 H14        29.8802   17.5503   66.2824 H           1 DAN       0.2100
     35 H15        27.1596   20.6676   67.2717 H           1 DAN       0.2100
     36 H16        29.4456   17.8648   69.8929 H           1 DAN       0.2095
@<TRIPOS>BOND
     1     1    14  ar
     2     1    13  ar
     3     1     2   1
     4     2    16   1
     5     2     3   2
     6     3     4   1
     7     4    15   1
     8     4     5   1
     9     5    12   1
    10     5     6   1
    11     6    16   1
    12     6     7   1
    13     7    17   1
    14     7     8   1
    15     8    18   1
    16     8     9   1
    17     9    19   1
    18    12    10  am
    19    10    20   2
    20    10    11   1
    21     3    21   1
    22     4    22   1
    23     5    23   1
    24     6    24   1
    25     7    25   1
    26     8    26   1
    27     9    27   1
    28     9    28   1
    29    11    29   1
    30    11    30   1
    31    11    31   1
    32    12    32   1
    33    15    33   1
    34    17    34   1
    35    18    35   1
    36    19    36   1
@<TRIPOS>SUBSTRUCTURE
     1  DAN      1

