@<TRIPOS>MOLECULE
1f8b_ligand_052
    36    36
SMALL
GAST_HUCK
****
This file was generated by PARSER (from files_GN.cpp)

@<TRIPOS>ATOM
      1 C1         29.1119   19.3007   56.4946 C.2         1 DAN       0.0809
      2 C2         28.1938   18.7055   57.3340 C.2         1 DAN       0.1088
      3 C3         27.4933   17.6112   56.9754 C.2         1 DAN      -0.0276
      4 C4         26.5536   16.9797   57.8720 C.3         1 DAN       0.1003
      5 C5         26.7652   17.3127   59.3936 C.3         1 DAN       0.1064
      6 C6         27.7889   18.4811   59.6515 C.3         1 DAN       0.1321
      7 C7         27.4136   19.3585   60.8981 C.3         1 DAN       0.1154
      8 C8         28.5774   19.5753   61.9067 C.3         1 DAN       0.1068
      9 C9         28.2309   20.5907   63.0435 C.3         1 DAN       0.0727
     10 C10        26.6453   15.4254   61.0258 C.2         1 DAN       0.1734
     11 C11        27.3444   14.3097   61.6118 C.3         1 DAN       0.0257
     12 N5         27.2491   16.1413   60.0840 N.am        1 DAN      -0.2770
     13 O1A        30.4377   19.2131   56.8116 O.co2       1 DAN      -0.5623
     14 O1B        28.8019   19.6185   55.2158 O.co2       1 DAN      -0.5623
     15 O4         25.2578   17.3757   57.4494 O.3         1 DAN      -0.3807
     16 O6         27.9478   19.3318   58.5060 O.3         1 DAN      -0.3189
     17 O7         26.8724   20.6146   60.4784 O.3         1 DAN      -0.3861
     18 O8         28.9033   18.3248   62.5222 O.3         1 DAN      -0.3869
     19 O9         28.9029   21.8402   62.8621 O.3         1 DAN      -0.3924
     20 O10        25.5003   15.6802   61.3942 O.2         1 DAN      -0.3974
     21 H1         27.6563   17.1895   56.0819 H           1 DAN       0.0480
     22 H2         26.6061   15.9033   57.7146 H           1 DAN       0.0740
     23 H3         25.7856   17.5907   59.7920 H           1 DAN       0.0632
     24 H4         28.7769   18.0415   59.8106 H           1 DAN       0.0697
     25 H5         26.6063   18.8799   61.4633 H           1 DAN       0.0650
     26 H6         29.4683   19.9292   61.3833 H           1 DAN       0.0643
     27 H7         28.5479   20.2018   64.0202 H           1 DAN       0.0584
     28 H8         27.1464   20.7744   63.0951 H           1 DAN       0.0584
     29 H9         26.7204   13.7728   62.3334 H           1 DAN       0.0467
     30 H10        28.2399   14.6642   62.1269 H           1 DAN       0.0467
     31 H11        27.6460   13.6043   60.8293 H           1 DAN       0.0467
     32 H12        28.1534   15.8502   59.8524 H           1 DAN       0.1858
     33 H13        25.2681   17.3441   56.4756 H           1 DAN       0.2127
     34 H14        27.6417   21.1310   60.1438 H           1 DAN       0.2100
     35 H15        29.5191   17.8727   61.8906 H           1 DAN       0.2100
     36 H16        28.8499   22.0279   61.8985 H           1 DAN       0.2095
@<TRIPOS>BOND
     1     1    14  ar
     2     1    13  ar
     3     1     2   1
     4     2    16   1
     5     2     3   2
     6     3     4   1
     7     4    15   1
     8     4     5   1
     9     5    12   1
    10     5     6   1
    11     6    16   1
    12     6     7   1
    13     7    17   1
    14     7     8   1
    15     8    18   1
    16     8     9   1
    17     9    19   1
    18    12    10  am
    19    10    20   2
    20    10    11   1
    21     3    21   1
    22     4    22   1
    23     5    23   1
    24     6    24   1
    25     7    25   1
    26     8    26   1
    27     9    27   1
    28     9    28   1
    29    11    29   1
    30    11    30   1
    31    11    31   1
    32    12    32   1
    33    15    33   1
    34    17    34   1
    35    18    35   1
    36    19    36   1
@<TRIPOS>SUBSTRUCTURE
     1  DAN      1

