@<TRIPOS>MOLECULE
1f8b_ligand_026
    36    36
SMALL
GAST_HUCK
****
This file was generated by PARSER (from files_GN.cpp)

@<TRIPOS>ATOM
      1 C1         24.2620   20.0692   65.2737 C.2         1 DAN       0.0809
      2 C2         25.3681   19.2464   65.3666 C.2         1 DAN       0.1088
      3 C3         26.5581   19.6887   65.8233 C.2         1 DAN      -0.0276
      4 C4         27.7279   18.8366   65.7019 C.3         1 DAN       0.1003
      5 C5         27.7297   18.2029   64.2767 C.3         1 DAN       0.1064
      6 C6         26.3226   17.5416   63.9846 C.3         1 DAN       0.1321
      7 C7         25.8668   17.7451   62.4984 C.3         1 DAN       0.1154
      8 C8         24.9249   16.6422   61.9371 C.3         1 DAN       0.1068
      9 C9         23.7633   16.2152   62.8644 C.3         1 DAN       0.0727
     10 C10        29.4776   16.9553   63.0474 C.2         1 DAN       0.1734
     11 C11        30.4997   15.9442   63.1160 C.3         1 DAN       0.0257
     12 N5         28.7955   17.2502   64.1474 N.am        1 DAN      -0.2770
     13 O1A        23.0280   19.6281   65.6290 O.co2       1 DAN      -0.5623
     14 O1B        24.3303   21.1404   64.4460 O.co2       1 DAN      -0.5623
     15 O4         28.9251   19.5785   65.9185 O.3         1 DAN      -0.3807
     16 O6         25.2726   17.9779   64.9084 O.3         1 DAN      -0.3189
     17 O7         25.2841   19.0459   62.3656 O.3         1 DAN      -0.3861
     18 O8         24.3478   17.0736   60.7060 O.3         1 DAN      -0.3869
     19 O9         23.1087   17.3529   63.4465 O.3         1 DAN      -0.3924
     20 O10        29.2499   17.5083   61.9750 O.2         1 DAN      -0.3974
     21 H1         26.6598   20.6275   66.1495 H           1 DAN       0.0480
     22 H2         27.6744   18.0438   66.4485 H           1 DAN       0.0740
     23 H3         27.8805   19.0359   63.5745 H           1 DAN       0.0632
     24 H4         26.4168   16.4670   64.1614 H           1 DAN       0.0697
     25 H5         26.7499   17.7346   61.8568 H           1 DAN       0.0650
     26 H6         25.5183   15.7562   61.7292 H           1 DAN       0.0643
     27 H7         24.1296   15.5646   63.6758 H           1 DAN       0.0584
     28 H8         23.0301   15.6329   62.2815 H           1 DAN       0.0584
     29 H9         30.9828   15.7914   62.1481 H           1 DAN       0.0467
     30 H10        30.0602   14.9966   63.4324 H           1 DAN       0.0467
     31 H11        31.2654   16.2372   63.8369 H           1 DAN       0.0467
     32 H12        29.0150   16.7413   64.9439 H           1 DAN       0.1858
     33 H13        28.9623   19.7395   66.8858 H           1 DAN       0.2127
     34 H14        24.8934   19.0706   61.4688 H           1 DAN       0.2100
     35 H15        25.0976   17.3553   60.1425 H           1 DAN       0.2100
     36 H16        22.1458   17.1321   63.3987 H           1 DAN       0.2095
@<TRIPOS>BOND
     1     1    14  ar
     2     1    13  ar
     3     1     2   1
     4     2    16   1
     5     2     3   2
     6     3     4   1
     7     4    15   1
     8     4     5   1
     9     5    12   1
    10     5     6   1
    11     6    16   1
    12     6     7   1
    13     7    17   1
    14     7     8   1
    15     8    18   1
    16     8     9   1
    17     9    19   1
    18    12    10  am
    19    10    20   2
    20    10    11   1
    21     3    21   1
    22     4    22   1
    23     5    23   1
    24     6    24   1
    25     7    25   1
    26     8    26   1
    27     9    27   1
    28     9    28   1
    29    11    29   1
    30    11    30   1
    31    11    31   1
    32    12    32   1
    33    15    33   1
    34    17    34   1
    35    18    35   1
    36    19    36   1
@<TRIPOS>SUBSTRUCTURE
     1  DAN      1

