@<TRIPOS>MOLECULE
1f8b_ligand_059
    36    36
SMALL
GAST_HUCK
****
This file was generated by PARSER (from files_GN.cpp)

@<TRIPOS>ATOM
      1 C1         20.2083   19.7633   68.6513 C.2         1 DAN       0.0809
      2 C2         21.5657   19.8218   68.4588 C.2         1 DAN       0.1088
      3 C3         22.2525   18.7654   67.9656 C.2         1 DAN      -0.0276
      4 C4         23.6378   18.8495   67.5524 C.3         1 DAN       0.1003
      5 C5         24.3922   20.0484   68.2082 C.3         1 DAN       0.1064
      6 C6         23.4519   21.3005   68.2767 C.3         1 DAN       0.1321
      7 C7         24.0730   22.5006   69.0616 C.3         1 DAN       0.1154
      8 C8         23.4355   23.8911   68.7857 C.3         1 DAN       0.1068
      9 C9         21.9171   24.0324   69.1044 C.3         1 DAN       0.0727
     10 C10        25.9886   20.8314   66.4393 C.2         1 DAN       0.1734
     11 C11        27.3786   20.8231   66.0332 C.3         1 DAN       0.0257
     12 N5         25.6855   20.2601   67.6007 N.am        1 DAN      -0.2770
     13 O1A        19.6885   18.8811   69.5531 O.co2       1 DAN      -0.5623
     14 O1B        19.4163   20.7932   68.2494 O.co2       1 DAN      -0.5623
     15 O4         24.3148   17.6322   67.8755 O.3         1 DAN      -0.3807
     16 O6         22.1823   20.9464   68.8786 O.3         1 DAN      -0.3189
     17 O7         24.0951   22.2174   70.4659 O.3         1 DAN      -0.3861
     18 O8         24.1523   24.8947   69.5062 O.3         1 DAN      -0.3869
     19 O9         21.6209   24.0125   70.5025 O.3         1 DAN      -0.3924
     20 O10        25.1446   21.3428   65.7047 O.2         1 DAN      -0.3974
     21 H1         21.7422   17.9415   67.7000 H           1 DAN       0.0480
     22 H2         23.6416   18.9568   66.4687 H           1 DAN       0.0740
     23 H3         24.5999   19.7495   69.2414 H           1 DAN       0.0632
     24 H4         23.2493   21.6307   67.2588 H           1 DAN       0.0697
     25 H5         25.1273   22.5885   68.7579 H           1 DAN       0.0650
     26 H6         23.5782   24.1266   67.7237 H           1 DAN       0.0643
     27 H7         21.3599   23.2157   68.6368 H           1 DAN       0.0584
     28 H8         21.5455   24.9724   68.6747 H           1 DAN       0.0584
     29 H9         27.5122   21.3443   65.0837 H           1 DAN       0.0467
     30 H10        27.7193   19.7917   65.9105 H           1 DAN       0.0467
     31 H11        27.9922   21.3173   66.7872 H           1 DAN       0.0467
     32 H12        26.4357   19.9176   68.1115 H           1 DAN       0.1858
     33 H13        23.9221   16.9373   67.3001 H           1 DAN       0.2127
     34 H14        23.1468   22.1502   70.7163 H           1 DAN       0.2100
     35 H15        23.9406   24.7358   70.4514 H           1 DAN       0.2100
     36 H16        21.7712   24.9278   70.8116 H           1 DAN       0.2095
@<TRIPOS>BOND
     1     1    14  ar
     2     1    13  ar
     3     1     2   1
     4     2    16   1
     5     2     3   2
     6     3     4   1
     7     4    15   1
     8     4     5   1
     9     5    12   1
    10     5     6   1
    11     6    16   1
    12     6     7   1
    13     7    17   1
    14     7     8   1
    15     8    18   1
    16     8     9   1
    17     9    19   1
    18    12    10  am
    19    10    20   2
    20    10    11   1
    21     3    21   1
    22     4    22   1
    23     5    23   1
    24     6    24   1
    25     7    25   1
    26     8    26   1
    27     9    27   1
    28     9    28   1
    29    11    29   1
    30    11    30   1
    31    11    31   1
    32    12    32   1
    33    15    33   1
    34    17    34   1
    35    18    35   1
    36    19    36   1
@<TRIPOS>SUBSTRUCTURE
     1  DAN      1

