@<TRIPOS>MOLECULE
1f8b_ligand_027
    36    36
SMALL
GAST_HUCK
****
This file was generated by PARSER (from files_GN.cpp)

@<TRIPOS>ATOM
      1 C1         23.5860   19.3593   66.9385 C.2         1 DAN       0.0809
      2 C2         22.6751   19.9382   67.7832 C.2         1 DAN       0.1088
      3 C3         22.8801   21.1461   68.3576 C.2         1 DAN      -0.0276
      4 C4         21.8798   21.8218   69.1539 C.3         1 DAN       0.1003
      5 C5         20.7144   20.8940   69.6493 C.3         1 DAN       0.1064
      6 C6         20.3698   19.7987   68.5711 C.3         1 DAN       0.1321
      7 C7         19.3562   18.6924   69.0241 C.3         1 DAN       0.1154
      8 C8         19.9151   17.4403   69.7856 C.3         1 DAN       0.1068
      9 C9         19.9670   16.1542   68.9193 C.3         1 DAN       0.0727
     10 C10        18.6115   22.2304   69.3877 C.2         1 DAN       0.1734
     11 C11        17.5603   22.9346   70.0752 C.3         1 DAN       0.0257
     12 N5         19.5988   21.6893   70.1052 N.am        1 DAN      -0.2770
     13 O1A        24.8611   19.0965   67.3333 O.co2       1 DAN      -0.5623
     14 O1B        23.1904   18.8917   65.7250 O.co2       1 DAN      -0.5623
     15 O4         22.4967   22.4769   70.2632 O.3         1 DAN      -0.3807
     16 O6         21.5772   19.1714   68.0581 O.3         1 DAN      -0.3189
     17 O7         18.2901   19.2830   69.7781 O.3         1 DAN      -0.3861
     18 O8         21.1909   17.6674   70.3859 O.3         1 DAN      -0.3869
     19 O9         21.0080   16.1917   67.9478 O.3         1 DAN      -0.3924
     20 O10        18.5257   22.0903   68.1658 O.2         1 DAN      -0.3974
     21 H1         23.7018   21.6770   68.1075 H           1 DAN       0.0480
     22 H2         21.4574   22.6160   68.5271 H           1 DAN       0.0740
     23 H3         21.1011   20.3583   70.5248 H           1 DAN       0.0632
     24 H4         19.9385   20.3029   67.7071 H           1 DAN       0.0697
     25 H5         18.8586   18.3464   68.1074 H           1 DAN       0.0650
     26 H6         19.2478   17.2127   70.6240 H           1 DAN       0.0643
     27 H7         19.0189   16.0339   68.3823 H           1 DAN       0.0584
     28 H8         20.1010   15.2785   69.5545 H           1 DAN       0.0584
     29 H9         16.7422   23.1848   69.3904 H           1 DAN       0.0467
     30 H10        17.9716   23.8632   70.4882 H           1 DAN       0.0467
     31 H11        17.1590   22.3088   70.8850 H           1 DAN       0.0467
     32 H12        19.5386   21.8132   71.0683 H           1 DAN       0.1858
     33 H13        22.8508   21.7594   70.8330 H           1 DAN       0.2127
     34 H14        17.9631   18.5955   70.3911 H           1 DAN       0.2100
     35 H15        21.8095   17.7962   69.6353 H           1 DAN       0.2100
     36 H16        21.6993   15.5795   68.2899 H           1 DAN       0.2095
@<TRIPOS>BOND
     1     1    14  ar
     2     1    13  ar
     3     1     2   1
     4     2    16   1
     5     2     3   2
     6     3     4   1
     7     4    15   1
     8     4     5   1
     9     5    12   1
    10     5     6   1
    11     6    16   1
    12     6     7   1
    13     7    17   1
    14     7     8   1
    15     8    18   1
    16     8     9   1
    17     9    19   1
    18    12    10  am
    19    10    20   2
    20    10    11   1
    21     3    21   1
    22     4    22   1
    23     5    23   1
    24     6    24   1
    25     7    25   1
    26     8    26   1
    27     9    27   1
    28     9    28   1
    29    11    29   1
    30    11    30   1
    31    11    31   1
    32    12    32   1
    33    15    33   1
    34    17    34   1
    35    18    35   1
    36    19    36   1
@<TRIPOS>SUBSTRUCTURE
     1  DAN      1

