@<TRIPOS>MOLECULE
1f8b_ligand_062
    36    36
SMALL
GAST_HUCK
****
This file was generated by PARSER (from files_GN.cpp)

@<TRIPOS>ATOM
      1 C1         23.6983   20.3193   65.2470 C.2         1 DAN       0.0809
      2 C2         24.1704   19.8393   66.4416 C.2         1 DAN       0.1088
      3 C3         23.9662   18.5761   66.8689 C.2         1 DAN      -0.0276
      4 C4         24.5415   18.1656   68.1375 C.3         1 DAN       0.1003
      5 C5         24.2591   19.2613   69.2087 C.3         1 DAN       0.1064
      6 C6         24.6559   20.6762   68.6372 C.3         1 DAN       0.1321
      7 C7         23.6269   21.7875   69.0246 C.3         1 DAN       0.1154
      8 C8         24.0825   23.2164   68.6168 C.3         1 DAN       0.1068
      9 C9         23.1277   24.3411   69.1043 C.3         1 DAN       0.0727
     10 C10        26.0725   18.8285   70.8532 C.2         1 DAN       0.1734
     11 C11        26.3801   18.5484   72.2365 C.3         1 DAN       0.0257
     12 N5         24.8026   18.9661   70.5067 N.am        1 DAN      -0.2770
     13 O1A        24.4504   21.1964   64.5334 O.co2       1 DAN      -0.5623
     14 O1B        22.4174   20.0917   64.8483 O.co2       1 DAN      -0.5623
     15 O4         24.0227   16.9076   68.5584 O.3         1 DAN      -0.3807
     16 O6         24.9118   20.6754   67.2047 O.3         1 DAN      -0.3189
     17 O7         22.3620   21.4939   68.4295 O.3         1 DAN      -0.3861
     18 O8         25.3906   23.4638   69.1380 O.3         1 DAN      -0.3869
     19 O9         22.7303   24.1662   70.4614 O.3         1 DAN      -0.3924
     20 O10        26.9899   18.9373   70.0474 O.2         1 DAN      -0.3974
     21 H1         23.4226   17.9343   66.3317 H           1 DAN       0.0480
     22 H2         25.6196   18.0537   67.9964 H           1 DAN       0.0740
     23 H3         23.1755   19.2413   69.3606 H           1 DAN       0.0632
     24 H4         25.6125   20.9587   69.0779 H           1 DAN       0.0697
     25 H5         23.5020   21.7540   70.1097 H           1 DAN       0.0650
     26 H6         24.1411   23.2708   67.5255 H           1 DAN       0.0643
     27 H7         22.2294   24.3577   68.4858 H           1 DAN       0.0584
     28 H8         23.6201   25.3124   69.0109 H           1 DAN       0.0584
     29 H9         27.4591   18.4858   72.4076 H           1 DAN       0.0467
     30 H10        25.9302   17.5968   72.5292 H           1 DAN       0.0467
     31 H11        25.9782   19.3399   72.8732 H           1 DAN       0.0467
     32 H12        24.1551   18.8588   71.2189 H           1 DAN       0.1858
     33 H13        24.2258   16.3040   67.8202 H           1 DAN       0.2127
     34 H14        21.7178   22.0945   68.8565 H           1 DAN       0.2100
     35 H15        25.9108   23.7990   68.3719 H           1 DAN       0.2100
     36 H16        23.5563   24.2376   70.9891 H           1 DAN       0.2095
@<TRIPOS>BOND
     1     1    14  ar
     2     1    13  ar
     3     1     2   1
     4     2    16   1
     5     2     3   2
     6     3     4   1
     7     4    15   1
     8     4     5   1
     9     5    12   1
    10     5     6   1
    11     6    16   1
    12     6     7   1
    13     7    17   1
    14     7     8   1
    15     8    18   1
    16     8     9   1
    17     9    19   1
    18    12    10  am
    19    10    20   2
    20    10    11   1
    21     3    21   1
    22     4    22   1
    23     5    23   1
    24     6    24   1
    25     7    25   1
    26     8    26   1
    27     9    27   1
    28     9    28   1
    29    11    29   1
    30    11    30   1
    31    11    31   1
    32    12    32   1
    33    15    33   1
    34    17    34   1
    35    18    35   1
    36    19    36   1
@<TRIPOS>SUBSTRUCTURE
     1  DAN      1

