@<TRIPOS>MOLECULE
1f8b_ligand_024
    36    36
SMALL
GAST_HUCK
****
This file was generated by PARSER (from files_GN.cpp)

@<TRIPOS>ATOM
      1 C1         24.0315   20.0914   64.6183 C.2         1 DAN       0.0809
      2 C2         25.1049   19.3028   64.2365 C.2         1 DAN       0.1088
      3 C3         26.0860   19.7604   63.4267 C.2         1 DAN      -0.0276
      4 C4         27.1935   18.9346   62.9749 C.3         1 DAN       0.1003
      5 C5         27.3137   17.5973   63.7631 C.3         1 DAN       0.1064
      6 C6         25.8823   17.0224   64.0551 C.3         1 DAN       0.1321
      7 C7         25.0877   16.3264   62.8865 C.3         1 DAN       0.1154
      8 C8         24.1366   17.2195   62.0195 C.3         1 DAN       0.1068
      9 C9         23.6486   16.5594   60.7044 C.3         1 DAN       0.0727
     10 C10        28.4542   17.0098   65.8872 C.2         1 DAN       0.1734
     11 C11        29.1403   17.5044   67.0597 C.3         1 DAN       0.0257
     12 N5         28.0181   17.8805   64.9907 N.am        1 DAN      -0.2770
     13 O1A        23.9281   21.3860   64.2414 O.co2       1 DAN      -0.5623
     14 O1B        22.9924   19.5857   65.3235 O.co2       1 DAN      -0.5623
     15 O4         27.0512   18.6895   61.5769 O.3         1 DAN      -0.3807
     16 O6         25.1113   18.0415   64.7316 O.3         1 DAN      -0.3189
     17 O7         26.0141   15.6017   62.0763 O.3         1 DAN      -0.3861
     18 O8         22.9914   17.6065   62.7814 O.3         1 DAN      -0.3869
     19 O9         24.6591   16.6443   59.7053 O.3         1 DAN      -0.3924
     20 O10        28.3009   15.8055   65.7438 O.2         1 DAN      -0.3974
     21 H1         26.0425   20.6796   63.0539 H           1 DAN       0.0480
     22 H2         28.1186   19.5113   63.0875 H           1 DAN       0.0740
     23 H3         27.9130   16.8885   63.1865 H           1 DAN       0.0632
     24 H4         26.0281   16.2368   64.7960 H           1 DAN       0.0697
     25 H5         24.4434   15.5690   63.3463 H           1 DAN       0.0650
     26 H6         24.6481   18.1357   61.7399 H           1 DAN       0.0643
     27 H7         22.7567   17.0689   60.3296 H           1 DAN       0.0584
     28 H8         23.3961   15.5115   60.8763 H           1 DAN       0.0584
     29 H9         29.4607   16.6866   67.7114 H           1 DAN       0.0467
     30 H10        28.4756   18.1600   67.6249 H           1 DAN       0.0467
     31 H11        30.0236   18.0694   66.7568 H           1 DAN       0.0467
     32 H12        28.2204   18.8124   65.1717 H           1 DAN       0.1858
     33 H13        27.9045   18.2980   61.2924 H           1 DAN       0.2127
     34 H14        25.5006   14.8668   61.6735 H           1 DAN       0.2100
     35 H15        22.3757   16.8453   62.7807 H           1 DAN       0.2100
     36 H16        24.5351   17.5326   59.3028 H           1 DAN       0.2095
@<TRIPOS>BOND
     1     1    14  ar
     2     1    13  ar
     3     1     2   1
     4     2    16   1
     5     2     3   2
     6     3     4   1
     7     4    15   1
     8     4     5   1
     9     5    12   1
    10     5     6   1
    11     6    16   1
    12     6     7   1
    13     7    17   1
    14     7     8   1
    15     8    18   1
    16     8     9   1
    17     9    19   1
    18    12    10  am
    19    10    20   2
    20    10    11   1
    21     3    21   1
    22     4    22   1
    23     5    23   1
    24     6    24   1
    25     7    25   1
    26     8    26   1
    27     9    27   1
    28     9    28   1
    29    11    29   1
    30    11    30   1
    31    11    31   1
    32    12    32   1
    33    15    33   1
    34    17    34   1
    35    18    35   1
    36    19    36   1
@<TRIPOS>SUBSTRUCTURE
     1  DAN      1

