@<TRIPOS>MOLECULE
1f8c_ligand_081
    38    38
SMALL
GAST_HUCK
****
This file was generated by PARSER (from files_GN.cpp)

@<TRIPOS>ATOM
      1 C1         29.5326   18.3381   61.5993 C.2         1 MOL       0.0810
      2 O1A        29.4856   19.3270   62.5397 O.co2       1 MOL      -0.5623
      3 O1B        30.7483   17.8141   61.2918 O.co2       1 MOL      -0.5623
      4 C2         28.4166   17.5923   61.3638 C.2         1 MOL       0.1116
      5 C3         27.9904   17.3775   60.1000 C.2         1 MOL      -0.0085
      6 C4         26.7920   16.6151   59.8166 C.3         1 MOL       0.0210
      7 N4         26.0342   17.2848   58.7567 N.4         1 MOL       0.2321
      8 C5         25.8916   16.3692   61.0706 C.3         1 MOL       0.1228
      9 N5         25.0274   15.2586   60.7708 N.am        1 MOL      -0.2741
     10 C10        23.7395   15.3165   60.4787 C.2         1 MOL       0.1735
     11 O10        23.1125   16.3640   60.4690 O.2         1 MOL      -0.3974
     12 C11        23.0684   14.0906   60.0993 C.3         1 MOL       0.0257
     13 C6         26.7825   16.0967   62.3366 C.3         1 MOL       0.1349
     14 O6         27.7295   17.1871   62.4623 O.3         1 MOL      -0.3186
     15 C7         26.0335   15.8995   63.7083 C.3         1 MOL       0.1156
     16 O7         24.6513   15.6119   63.5150 O.3         1 MOL      -0.3861
     17 C8         26.1159   17.0407   64.7859 C.3         1 MOL       0.1068
     18 O8         25.9075   18.3246   64.1866 O.3         1 MOL      -0.3869
     19 C9         27.4010   17.0592   65.6900 C.3         1 MOL       0.0727
     20 O9         28.3865   16.0831   65.3747 O.3         1 MOL      -0.3924
     21 H1         28.5260   17.7112   59.3121 H           1 MOL       0.0510
     22 H2         27.1263   15.6426   59.4142 H           1 MOL       0.0996
     23 H3         26.6501   17.4756   57.9668 H           1 MOL       0.2008
     24 H4         25.6586   18.1679   59.1115 H           1 MOL       0.2008
     25 H5         25.2565   16.6942   58.4481 H           1 MOL       0.2008
     26 H6         25.3196   17.2799   61.2800 H           1 MOL       0.0664
     27 H7         25.4554   14.3898   60.6956 H           1 MOL       0.1859
     28 H8         22.0241   14.2698   59.8267 H           1 MOL       0.0467
     29 H9         23.0960   13.3843   60.9312 H           1 MOL       0.0467
     30 H10        23.5685   13.6488   59.2360 H           1 MOL       0.0467
     31 H11        27.3574   15.1859   62.1450 H           1 MOL       0.0698
     32 H12        26.4277   14.9957   64.1826 H           1 MOL       0.0650
     33 H13        24.6282   14.7450   63.0618 H           1 MOL       0.2100
     34 H14        25.2634   16.9050   65.4709 H           1 MOL       0.0643
     35 H15        25.0456   18.2560   63.7114 H           1 MOL       0.2100
     36 H16        27.1001   16.8711   66.7317 H           1 MOL       0.0584
     37 H17        27.8595   18.0462   65.6723 H           1 MOL       0.0584
     38 H18        28.7663   16.3767   64.5182 H           1 MOL       0.2095
@<TRIPOS>BOND
     1     4     1   1
     2     1     3  ar
     3     1     2  ar
     4     4    14   1
     5     4     5   2
     6     5     6   1
     7     6     8   1
     8     6     7   1
     9     8    13   1
    10     8     9   1
    11     9    10  am
    12    10    12   1
    13    10    11   2
    14    13    15   1
    15    13    14   1
    16    15    17   1
    17    15    16   1
    18    17    19   1
    19    17    18   1
    20    19    20   1
    21     5    21   1
    22     6    22   1
    23     7    23   1
    24     7    24   1
    25     7    25   1
    26     8    26   1
    27     9    27   1
    28    12    28   1
    29    12    29   1
    30    12    30   1
    31    13    31   1
    32    15    32   1
    33    16    33   1
    34    17    34   1
    35    18    35   1
    36    19    36   1
    37    19    37   1
    38    20    38   1
@<TRIPOS>SUBSTRUCTURE
     1  MOL      1

