@<TRIPOS>MOLECULE
1f8c_ligand_005
    38    38
SMALL
GAST_HUCK
****
This file was generated by PARSER (from files_GN.cpp)

@<TRIPOS>ATOM
      1 C1         24.1499   19.9285   64.3296 C.2         1 MOL       0.0810
      2 O1A        24.6328   21.1552   64.6320 O.co2       1 MOL      -0.5623
      3 O1B        22.8802   19.6519   64.7206 O.co2       1 MOL      -0.5623
      4 C2         24.9728   18.9976   63.7111 C.2         1 MOL       0.1116
      5 C3         24.5199   17.8589   63.1450 C.2         1 MOL      -0.0085
      6 C4         25.4666   16.9072   62.5835 C.3         1 MOL       0.0210
      7 N4         25.9836   16.0840   63.6900 N.4         1 MOL       0.2321
      8 C5         26.6520   17.6044   61.8283 C.3         1 MOL       0.1228
      9 N5         26.3423   17.7097   60.4254 N.am        1 MOL      -0.2741
     10 C10        26.8529   17.0031   59.4252 C.2         1 MOL       0.1735
     11 O10        27.6743   16.1126   59.6092 O.2         1 MOL      -0.3974
     12 C11        26.3977   17.2755   58.0811 C.3         1 MOL       0.0257
     13 C6         26.9730   19.0312   62.4342 C.3         1 MOL       0.1349
     14 O6         26.3061   19.2239   63.7089 O.3         1 MOL      -0.3186
     15 C7         28.5048   19.3008   62.5906 C.3         1 MOL       0.1156
     16 O7         29.1012   18.3361   63.4594 O.3         1 MOL      -0.3861
     17 C8         28.9013   20.7451   63.0412 C.3         1 MOL       0.1068
     18 O8         30.2463   21.0108   62.6390 O.3         1 MOL      -0.3869
     19 C9         28.8097   21.0538   64.5606 C.3         1 MOL       0.0727
     20 O9         29.6459   20.2168   65.3568 O.3         1 MOL      -0.3924
     21 H1         23.5463   17.6618   63.0972 H           1 MOL       0.0510
     22 H2         24.9415   16.2176   61.9154 H           1 MOL       0.0996
     23 H3         25.2058   15.6137   64.1556 H           1 MOL       0.2008
     24 H4         26.4772   16.6757   64.3618 H           1 MOL       0.2008
     25 H5         26.6280   15.3839   63.3191 H           1 MOL       0.2008
     26 H6         27.5279   16.9601   61.9424 H           1 MOL       0.0664
     27 H7         25.6484   18.3391   60.1853 H           1 MOL       0.1859
     28 H8         26.7778   16.5384   57.3684 H           1 MOL       0.0467
     29 H9         26.7441   18.2630   57.7718 H           1 MOL       0.0467
     30 H10        25.3067   17.2573   58.0421 H           1 MOL       0.0467
     31 H11        26.5837   19.8013   61.7572 H           1 MOL       0.0698
     32 H12        28.9465   19.1410   61.6015 H           1 MOL       0.0650
     33 H13        28.5960   18.3940   64.2980 H           1 MOL       0.2100
     34 H14        28.2670   21.4632   62.5148 H           1 MOL       0.0643
     35 H15        30.1964   21.1754   61.6734 H           1 MOL       0.2100
     36 H16        27.7854   20.9497   64.9117 H           1 MOL       0.0584
     37 H17        29.1144   22.0873   64.7349 H           1 MOL       0.0584
     38 H18        30.5619   20.3944   65.0544 H           1 MOL       0.2095
@<TRIPOS>BOND
     1     4     1   1
     2     1     3  ar
     3     1     2  ar
     4     4    14   1
     5     4     5   2
     6     5     6   1
     7     6     8   1
     8     6     7   1
     9     8    13   1
    10     8     9   1
    11     9    10  am
    12    10    12   1
    13    10    11   2
    14    13    15   1
    15    13    14   1
    16    15    17   1
    17    15    16   1
    18    17    19   1
    19    17    18   1
    20    19    20   1
    21     5    21   1
    22     6    22   1
    23     7    23   1
    24     7    24   1
    25     7    25   1
    26     8    26   1
    27     9    27   1
    28    12    28   1
    29    12    29   1
    30    12    30   1
    31    13    31   1
    32    15    32   1
    33    16    33   1
    34    17    34   1
    35    18    35   1
    36    19    36   1
    37    19    37   1
    38    20    38   1
@<TRIPOS>SUBSTRUCTURE
     1  MOL      1

