@<TRIPOS>MOLECULE
1f8c_ligand_006
    38    38
SMALL
GAST_HUCK
****
This file was generated by PARSER (from files_GN.cpp)

@<TRIPOS>ATOM
      1 C1         24.1601   19.8823   64.4386 C.2         1 MOL       0.0810
      2 O1A        22.9991   19.4984   65.0406 O.co2       1 MOL      -0.5623
      3 O1B        24.6497   21.0963   64.8032 O.co2       1 MOL      -0.5623
      4 C2         24.8573   19.0057   63.6271 C.2         1 MOL       0.1116
      5 C3         26.0655   19.3127   63.0907 C.2         1 MOL      -0.0085
      6 C4         26.8104   18.3878   62.2552 C.3         1 MOL       0.0210
      7 N4         27.3026   19.1248   61.0714 N.4         1 MOL       0.2321
      8 C5         26.0026   17.1395   61.7923 C.3         1 MOL       0.1228
      9 N5         26.8569   16.1414   61.2139 N.am        1 MOL      -0.2741
     10 C10        27.3978   15.0749   61.7972 C.2         1 MOL       0.1735
     11 O10        27.1327   14.7854   62.9662 O.2         1 MOL      -0.3974
     12 C11        28.2265   14.2035   60.9995 C.3         1 MOL       0.0257
     13 C6         25.0317   16.6919   62.9233 C.3         1 MOL       0.1349
     14 O6         24.2319   17.8378   63.3150 O.3         1 MOL      -0.3186
     15 C7         24.0749   15.4780   62.6636 C.3         1 MOL       0.1156
     16 O7         24.6187   14.3029   63.2842 O.3         1 MOL      -0.3861
     17 C8         23.6394   15.0817   61.2108 C.3         1 MOL       0.1068
     18 O8         24.6519   14.2938   60.5801 O.3         1 MOL      -0.3869
     19 C9         23.2159   16.2210   60.2357 C.3         1 MOL       0.0727
     20 O9         22.7165   17.3979   60.8784 O.3         1 MOL      -0.3924
     21 H1         26.5094   20.1679   63.3507 H           1 MOL       0.0510
     22 H2         27.6934   18.0771   62.8240 H           1 MOL       0.0996
     23 H3         27.8219   19.9676   61.3653 H           1 MOL       0.2008
     24 H4         26.5066   19.4120   60.4883 H           1 MOL       0.2008
     25 H5         27.9265   18.5247   60.5187 H           1 MOL       0.2008
     26 H6         25.3794   17.4709   60.9654 H           1 MOL       0.0664
     27 H7         27.0694   16.2550   60.2663 H           1 MOL       0.1859
     28 H8         28.5457   13.3247   61.5766 H           1 MOL       0.0467
     29 H9         29.1194   14.7506   60.6659 H           1 MOL       0.0467
     30 H10        27.6697   13.8556   60.1184 H           1 MOL       0.0467
     31 H11        25.6373   16.4200   63.8094 H           1 MOL       0.0698
     32 H12        23.1532   15.6625   63.2247 H           1 MOL       0.0650
     33 H13        25.3307   13.9947   62.6870 H           1 MOL       0.2100
     34 H14        22.7663   14.4251   61.3115 H           1 MOL       0.0643
     35 H15        24.2649   13.3929   60.4939 H           1 MOL       0.2100
     36 H16        22.4130   15.8461   59.5756 H           1 MOL       0.0584
     37 H17        24.0468   16.5112   59.5780 H           1 MOL       0.0584
     38 H18        23.3394   18.0996   60.5924 H           1 MOL       0.2095
@<TRIPOS>BOND
     1     4     1   1
     2     1     3  ar
     3     1     2  ar
     4     4    14   1
     5     4     5   2
     6     5     6   1
     7     6     8   1
     8     6     7   1
     9     8    13   1
    10     8     9   1
    11     9    10  am
    12    10    12   1
    13    10    11   2
    14    13    15   1
    15    13    14   1
    16    15    17   1
    17    15    16   1
    18    17    19   1
    19    17    18   1
    20    19    20   1
    21     5    21   1
    22     6    22   1
    23     7    23   1
    24     7    24   1
    25     7    25   1
    26     8    26   1
    27     9    27   1
    28    12    28   1
    29    12    29   1
    30    12    30   1
    31    13    31   1
    32    15    32   1
    33    16    33   1
    34    17    34   1
    35    18    35   1
    36    19    36   1
    37    19    37   1
    38    20    38   1
@<TRIPOS>SUBSTRUCTURE
     1  MOL      1

