@<TRIPOS>MOLECULE
1f8c_ligand_021
    38    38
SMALL
GAST_HUCK
****
This file was generated by PARSER (from files_GN.cpp)

@<TRIPOS>ATOM
      1 C1         29.6555   16.1861   62.4095 C.2         1 MOL       0.0810
      2 O1A        30.7539   16.1199   61.6106 O.co2       1 MOL      -0.5623
      3 O1B        29.7136   15.5157   63.5949 O.co2       1 MOL      -0.5623
      4 C2         28.4395   16.4664   61.8648 C.2         1 MOL       0.1116
      5 C3         27.8014   17.6237   62.1280 C.2         1 MOL      -0.0085
      6 C4         26.5026   17.9573   61.5656 C.3         1 MOL       0.0210
      7 N4         25.5852   18.3148   62.6627 N.4         1 MOL       0.2321
      8 C5         25.8938   16.8418   60.6430 C.3         1 MOL       0.1228
      9 N5         26.0570   17.0734   59.2188 N.am        1 MOL      -0.2741
     10 C10        27.0996   17.5567   58.5491 C.2         1 MOL       0.1735
     11 O10        28.1031   17.9861   59.1059 O.2         1 MOL      -0.3974
     12 C11        27.0341   17.5939   57.1073 C.3         1 MOL       0.0257
     13 C6         26.4985   15.4226   60.9608 C.3         1 MOL       0.1349
     14 O6         27.9336   15.5671   60.9878 O.3         1 MOL      -0.3186
     15 C7         25.9590   14.7006   62.2402 C.3         1 MOL       0.1156
     16 O7         26.8592   13.6397   62.5796 O.3         1 MOL      -0.3861
     17 C8         24.4893   14.1090   62.1945 C.3         1 MOL       0.1068
     18 O8         24.0139   13.9116   60.8600 O.3         1 MOL      -0.3869
     19 C9         23.4039   14.9222   62.9665 C.3         1 MOL       0.0727
     20 O9         22.4820   14.0375   63.6168 O.3         1 MOL      -0.3924
     21 H1         28.2476   18.2895   62.7277 H           1 MOL       0.0510
     22 H2         26.6172   18.8825   60.9980 H           1 MOL       0.0996
     23 H3         26.0326   18.9948   63.2895 H           1 MOL       0.2008
     24 H4         25.3166   17.4851   63.2021 H           1 MOL       0.2008
     25 H5         24.7365   18.7498   62.2760 H           1 MOL       0.2008
     26 H6         24.8135   16.7900   60.8083 H           1 MOL       0.0664
     27 H7         25.3358   16.7375   58.6647 H           1 MOL       0.1859
     28 H8         27.9047   18.0912   56.6625 H           1 MOL       0.0467
     29 H9         26.1424   18.1265   56.7763 H           1 MOL       0.0467
     30 H10        26.9976   16.5754   56.7180 H           1 MOL       0.0467
     31 H11        26.2923   14.7499   60.1182 H           1 MOL       0.0698
     32 H12        26.0323   15.3931   63.0860 H           1 MOL       0.0650
     33 H13        26.8027   12.9931   61.8480 H           1 MOL       0.2100
     34 H14        24.5360   13.1112   62.6304 H           1 MOL       0.0643
     35 H15        24.4470   13.0978   60.5361 H           1 MOL       0.2100
     36 H16        22.8520   15.5482   62.2741 H           1 MOL       0.0584
     37 H17        23.8425   15.5638   63.7232 H           1 MOL       0.0584
     38 H18        22.6846   14.1414   64.5766 H           1 MOL       0.2095
@<TRIPOS>BOND
     1     4     1   1
     2     1     3  ar
     3     1     2  ar
     4     4    14   1
     5     4     5   2
     6     5     6   1
     7     6     8   1
     8     6     7   1
     9     8    13   1
    10     8     9   1
    11     9    10  am
    12    10    12   1
    13    10    11   2
    14    13    15   1
    15    13    14   1
    16    15    17   1
    17    15    16   1
    18    17    19   1
    19    17    18   1
    20    19    20   1
    21     5    21   1
    22     6    22   1
    23     7    23   1
    24     7    24   1
    25     7    25   1
    26     8    26   1
    27     9    27   1
    28    12    28   1
    29    12    29   1
    30    12    30   1
    31    13    31   1
    32    15    32   1
    33    16    33   1
    34    17    34   1
    35    18    35   1
    36    19    36   1
    37    19    37   1
    38    20    38   1
@<TRIPOS>SUBSTRUCTURE
     1  MOL      1

