@<TRIPOS>MOLECULE
1f8c_ligand_088
    38    38
SMALL
GAST_HUCK
****
This file was generated by PARSER (from files_GN.cpp)

@<TRIPOS>ATOM
      1 C1         27.5516   19.7091   60.0283 C.2         1 MOL       0.0810
      2 O1A        28.7502   19.4202   59.4684 O.co2       1 MOL      -0.5623
      3 O1B        27.0124   20.9275   59.7644 O.co2       1 MOL      -0.5623
      4 C2         26.8565   18.7401   60.7285 C.2         1 MOL       0.1116
      5 C3         26.1170   19.0175   61.8154 C.2         1 MOL      -0.0085
      6 C4         25.3736   17.9958   62.5487 C.3         1 MOL       0.0210
      7 N4         25.7033   18.0958   63.9825 N.4         1 MOL       0.2321
      8 C5         25.5926   16.5166   62.0624 C.3         1 MOL       0.1228
      9 N5         24.4282   15.7257   62.3519 N.am        1 MOL      -0.2741
     10 C10        24.4184   14.4662   62.7864 C.2         1 MOL       0.1735
     11 O10        25.4588   13.8104   62.9106 O.2         1 MOL      -0.3974
     12 C11        23.1635   13.8036   62.9507 C.3         1 MOL       0.0257
     13 C6         25.9276   16.5444   60.5245 C.3         1 MOL       0.1349
     14 O6         27.0103   17.4736   60.2923 O.3         1 MOL      -0.3186
     15 C7         26.3092   15.2052   59.8004 C.3         1 MOL       0.1156
     16 O7         25.3607   14.1685   60.0838 O.3         1 MOL      -0.3861
     17 C8         27.7835   14.6855   59.9404 C.3         1 MOL       0.1068
     18 O8         27.8796   13.3685   59.3833 O.3         1 MOL      -0.3869
     19 C9         28.4112   14.6830   61.3650 C.3         1 MOL       0.0727
     20 O9         28.0272   13.5411   62.1527 O.3         1 MOL      -0.3924
     21 H1         26.0174   19.9603   62.1239 H           1 MOL       0.0510
     22 H2         24.3133   18.2542   62.4439 H           1 MOL       0.0996
     23 H3         25.4981   19.0367   64.3218 H           1 MOL       0.2008
     24 H4         26.6971   17.8954   64.1305 H           1 MOL       0.2008
     25 H5         25.1446   17.4204   64.5112 H           1 MOL       0.2008
     26 H6         26.4622   16.1235   62.5988 H           1 MOL       0.0664
     27 H7         23.5527   16.1384   62.2112 H           1 MOL       0.1859
     28 H8         23.2833   12.7321   63.1216 H           1 MOL       0.0467
     29 H9         22.5481   13.9368   62.0567 H           1 MOL       0.0467
     30 H10        22.6393   14.2280   63.8079 H           1 MOL       0.0467
     31 H11        25.0364   16.9193   60.0064 H           1 MOL       0.0698
     32 H12        26.1858   15.3997   58.7255 H           1 MOL       0.0650
     33 H13        25.5522   13.4460   59.4347 H           1 MOL       0.2100
     34 H14        28.4091   15.3330   59.3208 H           1 MOL       0.0643
     35 H15        27.6007   13.4620   58.4518 H           1 MOL       0.2100
     36 H16        28.1447   15.5933   61.9176 H           1 MOL       0.0584
     37 H17        29.5208   14.6688   61.2473 H           1 MOL       0.0584
     38 H18        27.6685   12.8834   61.5178 H           1 MOL       0.2095
@<TRIPOS>BOND
     1     4     1   1
     2     1     3  ar
     3     1     2  ar
     4     4    14   1
     5     4     5   2
     6     5     6   1
     7     6     8   1
     8     6     7   1
     9     8    13   1
    10     8     9   1
    11     9    10  am
    12    10    12   1
    13    10    11   2
    14    13    15   1
    15    13    14   1
    16    15    17   1
    17    15    16   1
    18    17    19   1
    19    17    18   1
    20    19    20   1
    21     5    21   1
    22     6    22   1
    23     7    23   1
    24     7    24   1
    25     7    25   1
    26     8    26   1
    27     9    27   1
    28    12    28   1
    29    12    29   1
    30    12    30   1
    31    13    31   1
    32    15    32   1
    33    16    33   1
    34    17    34   1
    35    18    35   1
    36    19    36   1
    37    19    37   1
    38    20    38   1
@<TRIPOS>SUBSTRUCTURE
     1  MOL      1

