@<TRIPOS>MOLECULE
1f8c_ligand_026
    38    38
SMALL
GAST_HUCK
****
This file was generated by PARSER (from files_GN.cpp)

@<TRIPOS>ATOM
      1 C1         28.5689   15.6412   63.1782 C.2         1 MOL       0.0810
      2 O1A        28.5450   16.0406   64.4858 O.co2       1 MOL      -0.5623
      3 O1B        29.7674   15.1900   62.6864 O.co2       1 MOL      -0.5623
      4 C2         27.5018   15.8331   62.3568 C.2         1 MOL       0.1116
      5 C3         26.7829   14.8043   61.8640 C.2         1 MOL      -0.0085
      6 C4         25.6481   15.0003   60.9868 C.3         1 MOL       0.0210
      7 N4         25.9322   14.2696   59.7291 N.4         1 MOL       0.2321
      8 C5         25.2942   16.5061   60.7008 C.3         1 MOL       0.1228
      9 N5         24.2606   17.0938   61.5022 N.am        1 MOL      -0.2741
     10 C10        23.8116   16.7807   62.7155 C.2         1 MOL       0.1735
     11 O10        24.2453   15.8147   63.3345 O.2         1 MOL      -0.3974
     12 C11        22.8333   17.6432   63.3471 C.3         1 MOL       0.0257
     13 C6         26.5653   17.4170   60.8288 C.3         1 MOL       0.1349
     14 O6         27.1591   17.1332   62.1119 O.3         1 MOL      -0.3186
     15 C7         27.6215   17.3400   59.6712 C.3         1 MOL       0.1156
     16 O7         28.7065   18.1927   60.0400 O.3         1 MOL      -0.3861
     17 C8         27.0676   17.7070   58.2376 C.3         1 MOL       0.1068
     18 O8         26.9274   16.5183   57.4641 O.3         1 MOL      -0.3869
     19 C9         27.9293   18.7142   57.4439 C.3         1 MOL       0.0727
     20 O9         27.7292   18.5890   56.0319 O.3         1 MOL      -0.3924
     21 H1         27.0335   13.8787   62.1157 H           1 MOL       0.0510
     22 H2         24.7751   14.5146   61.4042 H           1 MOL       0.0996
     23 H3         25.8745   13.2587   59.8896 H           1 MOL       0.2008
     24 H4         26.8652   14.4998   59.3551 H           1 MOL       0.2008
     25 H5         25.2248   14.5162   59.0148 H           1 MOL       0.2008
     26 H6         24.8997   16.5877   59.6858 H           1 MOL       0.0664
     27 H7         23.9351   17.9555   61.1597 H           1 MOL       0.1859
     28 H8         22.4497   17.2035   64.2676 H           1 MOL       0.0467
     29 H9         21.9879   17.8163   62.6762 H           1 MOL       0.0467
     30 H10        23.3007   18.5982   63.5947 H           1 MOL       0.0467
     31 H11        26.2435   18.4613   60.8642 H           1 MOL       0.0698
     32 H12        28.0338   16.3297   59.6272 H           1 MOL       0.0650
     33 H13        29.1621   17.7310   60.7800 H           1 MOL       0.2100
     34 H14        26.0751   18.1531   58.3321 H           1 MOL       0.0643
     35 H15        25.9895   16.2462   57.5518 H           1 MOL       0.2100
     36 H16        28.9909   18.5735   57.6428 H           1 MOL       0.0584
     37 H17        27.6594   19.7335   57.7224 H           1 MOL       0.0584
     38 H18        27.8290   17.6378   55.8186 H           1 MOL       0.2095
@<TRIPOS>BOND
     1     4     1   1
     2     1     3  ar
     3     1     2  ar
     4     4    14   1
     5     4     5   2
     6     5     6   1
     7     6     8   1
     8     6     7   1
     9     8    13   1
    10     8     9   1
    11     9    10  am
    12    10    12   1
    13    10    11   2
    14    13    15   1
    15    13    14   1
    16    15    17   1
    17    15    16   1
    18    17    19   1
    19    17    18   1
    20    19    20   1
    21     5    21   1
    22     6    22   1
    23     7    23   1
    24     7    24   1
    25     7    25   1
    26     8    26   1
    27     9    27   1
    28    12    28   1
    29    12    29   1
    30    12    30   1
    31    13    31   1
    32    15    32   1
    33    16    33   1
    34    17    34   1
    35    18    35   1
    36    19    36   1
    37    19    37   1
    38    20    38   1
@<TRIPOS>SUBSTRUCTURE
     1  MOL      1

