@<TRIPOS>MOLECULE
1f8c_ligand_057
    38    38
SMALL
GAST_HUCK
****
This file was generated by PARSER (from files_GN.cpp)

@<TRIPOS>ATOM
      1 C1         29.4219   16.9270   61.5350 C.2         1 MOL       0.0810
      2 O1A        30.5203   16.1222   61.5274 O.co2       1 MOL      -0.5623
      3 O1B        29.4882   18.0410   62.3047 O.co2       1 MOL      -0.5623
      4 C2         28.2641   16.6080   60.8631 C.2         1 MOL       0.1116
      5 C3         28.1667   15.6233   59.9437 C.2         1 MOL      -0.0085
      6 C4         26.8871   15.3752   59.3063 C.3         1 MOL       0.0210
      7 N4         26.6620   16.4204   58.2879 N.4         1 MOL       0.2321
      8 C5         25.7247   15.4115   60.3577 C.3         1 MOL       0.1228
      9 N5         25.4117   14.0974   60.8648 N.am        1 MOL      -0.2741
     10 C10        25.9622   13.4171   61.8684 C.2         1 MOL       0.1735
     11 O10        26.8701   13.8850   62.5658 O.2         1 MOL      -0.3974
     12 C11        25.3858   12.1507   62.2218 C.3         1 MOL       0.0257
     13 C6         25.9819   16.5117   61.4711 C.3         1 MOL       0.1349
     14 O6         27.1453   17.3290   61.1473 O.3         1 MOL      -0.3186
     15 C7         24.7705   17.4518   61.7498 C.3         1 MOL       0.1156
     16 O7         25.1462   18.3842   62.7676 O.3         1 MOL      -0.3861
     17 C8         23.4342   16.7431   62.1423 C.3         1 MOL       0.1068
     18 O8         22.4076   17.7342   62.2098 O.3         1 MOL      -0.3869
     19 C9         23.4809   15.9445   63.4774 C.3         1 MOL       0.0727
     20 O9         23.0060   14.6119   63.2988 O.3         1 MOL      -0.3924
     21 H1         28.9363   15.0186   59.7555 H           1 MOL       0.0510
     22 H2         26.9015   14.4108   58.7861 H           1 MOL       0.0996
     23 H3         27.3777   16.3653   57.5640 H           1 MOL       0.2008
     24 H4         26.6910   17.3426   58.7277 H           1 MOL       0.2008
     25 H5         25.7393   16.2851   57.8711 H           1 MOL       0.2008
     26 H6         24.8273   15.6926   59.7924 H           1 MOL       0.0664
     27 H7         24.6977   13.6199   60.3932 H           1 MOL       0.1859
     28 H8         25.5780   11.9201   63.2694 H           1 MOL       0.0467
     29 H9         25.8333   11.3735   61.5975 H           1 MOL       0.0467
     30 H10        24.2987   12.1606   62.0732 H           1 MOL       0.0467
     31 H11        26.2278   16.0073   62.4162 H           1 MOL       0.0698
     32 H12        24.5944   18.0186   60.8353 H           1 MOL       0.0650
     33 H13        24.4321   19.0523   62.7680 H           1 MOL       0.2100
     34 H14        23.1459   16.0743   61.3288 H           1 MOL       0.0643
     35 H15        21.6591   17.2816   62.6458 H           1 MOL       0.2100
     36 H16        22.8644   16.4385   64.2343 H           1 MOL       0.0584
     37 H17        24.4933   15.8885   63.8791 H           1 MOL       0.0584
     38 H18        23.0534   14.2358   64.1988 H           1 MOL       0.2095
@<TRIPOS>BOND
     1     4     1   1
     2     1     3  ar
     3     1     2  ar
     4     4    14   1
     5     4     5   2
     6     5     6   1
     7     6     8   1
     8     6     7   1
     9     8    13   1
    10     8     9   1
    11     9    10  am
    12    10    12   1
    13    10    11   2
    14    13    15   1
    15    13    14   1
    16    15    17   1
    17    15    16   1
    18    17    19   1
    19    17    18   1
    20    19    20   1
    21     5    21   1
    22     6    22   1
    23     7    23   1
    24     7    24   1
    25     7    25   1
    26     8    26   1
    27     9    27   1
    28    12    28   1
    29    12    29   1
    30    12    30   1
    31    13    31   1
    32    15    32   1
    33    16    33   1
    34    17    34   1
    35    18    35   1
    36    19    36   1
    37    19    37   1
    38    20    38   1
@<TRIPOS>SUBSTRUCTURE
     1  MOL      1

