@<TRIPOS>MOLECULE
1f8c_ligand_059
    38    38
SMALL
GAST_HUCK
****
This file was generated by PARSER (from files_GN.cpp)

@<TRIPOS>ATOM
      1 C1         29.3800   17.0920   66.1758 C.2         1 MOL       0.0810
      2 O1A        29.3774   17.8123   67.3365 O.co2       1 MOL      -0.5623
      3 O1B        29.2368   15.7476   66.2136 O.co2       1 MOL      -0.5623
      4 C2         29.1311   17.7249   64.9988 C.2         1 MOL       0.1116
      5 C3         30.0295   17.6923   63.9960 C.2         1 MOL      -0.0085
      6 C4         29.8206   18.4031   62.7393 C.3         1 MOL       0.0210
      7 N4         31.0113   19.1952   62.4294 N.4         1 MOL       0.2321
      8 C5         28.5581   19.3359   62.7455 C.3         1 MOL       0.1228
      9 N5         28.2076   19.7246   61.4060 N.am        1 MOL      -0.2741
     10 C10        27.6312   18.9799   60.4660 C.2         1 MOL       0.1735
     11 O10        27.2230   17.8407   60.6853 O.2         1 MOL      -0.3974
     12 C11        27.4659   19.5360   59.1423 C.3         1 MOL       0.0257
     13 C6         27.4338   18.6763   63.6095 C.3         1 MOL       0.1349
     14 O6         27.9665   18.4289   64.9291 O.3         1 MOL      -0.3186
     15 C7         26.1273   19.5316   63.7461 C.3         1 MOL       0.1156
     16 O7         26.3179   20.5821   64.6958 O.3         1 MOL      -0.3861
     17 C8         24.8630   18.6757   64.1068 C.3         1 MOL       0.1068
     18 O8         24.5579   17.8394   62.9790 O.3         1 MOL      -0.3869
     19 C9         23.5859   19.4911   64.4971 C.3         1 MOL       0.0727
     20 O9         23.6517   20.8690   64.0988 O.3         1 MOL      -0.3924
     21 H1         30.8689   17.1508   64.0986 H           1 MOL       0.0510
     22 H2         29.7079   17.6376   61.9671 H           1 MOL       0.0996
     23 H3         31.8213   18.5701   62.3718 H           1 MOL       0.2008
     24 H4         31.1481   19.8755   63.1820 H           1 MOL       0.2008
     25 H5         30.8928   19.6888   61.5337 H           1 MOL       0.2008
     26 H6         28.8296   20.2632   63.2635 H           1 MOL       0.0664
     27 H7         28.4861   20.6208   61.1339 H           1 MOL       0.1859
     28 H8         26.8726   18.8709   58.5003 H           1 MOL       0.0467
     29 H9         28.4511   19.6758   58.6805 H           1 MOL       0.0467
     30 H10        26.9585   20.5046   59.2125 H           1 MOL       0.0467
     31 H11        27.1815   17.7052   63.1717 H           1 MOL       0.0698
     32 H12        25.9202   20.0118   62.7850 H           1 MOL       0.0650
     33 H13        26.5171   20.1249   65.5419 H           1 MOL       0.2100
     34 H14        25.1309   18.0084   64.9368 H           1 MOL       0.0643
     35 H15        24.1285   18.4521   62.3433 H           1 MOL       0.2100
     36 H16        23.4409   19.4521   65.5873 H           1 MOL       0.0584
     37 H17        22.6955   19.0355   64.0141 H           1 MOL       0.0584
     38 H18        22.7077   21.1571   64.0759 H           1 MOL       0.2095
@<TRIPOS>BOND
     1     4     1   1
     2     1     3  ar
     3     1     2  ar
     4     4    14   1
     5     4     5   2
     6     5     6   1
     7     6     8   1
     8     6     7   1
     9     8    13   1
    10     8     9   1
    11     9    10  am
    12    10    12   1
    13    10    11   2
    14    13    15   1
    15    13    14   1
    16    15    17   1
    17    15    16   1
    18    17    19   1
    19    17    18   1
    20    19    20   1
    21     5    21   1
    22     6    22   1
    23     7    23   1
    24     7    24   1
    25     7    25   1
    26     8    26   1
    27     9    27   1
    28    12    28   1
    29    12    29   1
    30    12    30   1
    31    13    31   1
    32    15    32   1
    33    16    33   1
    34    17    34   1
    35    18    35   1
    36    19    36   1
    37    19    37   1
    38    20    38   1
@<TRIPOS>SUBSTRUCTURE
     1  MOL      1

