@<TRIPOS>MOLECULE
1f8c_ligand_003
    38    38
SMALL
GAST_HUCK
****
This file was generated by PARSER (from files_GN.cpp)

@<TRIPOS>ATOM
      1 C1         23.8913   19.8630   64.5040 C.2         1 MOL       0.0810
      2 O1A        24.6502   20.9667   64.7019 O.co2       1 MOL      -0.5623
      3 O1B        22.5607   19.9728   64.7388 O.co2       1 MOL      -0.5623
      4 C2         24.4581   18.7410   63.9179 C.2         1 MOL       0.1116
      5 C3         23.7177   17.7406   63.4020 C.2         1 MOL      -0.0085
      6 C4         24.3186   16.6472   62.6620 C.3         1 MOL       0.0210
      7 N4         23.4770   15.4450   62.7870 N.4         1 MOL       0.2321
      8 C5         25.7731   16.3163   63.1051 C.3         1 MOL       0.1228
      9 N5         26.3927   15.5495   62.0551 N.am        1 MOL      -0.2741
     10 C10        26.8831   14.3216   62.1198 C.2         1 MOL       0.1735
     11 O10        26.8951   13.6799   63.1618 O.2         1 MOL      -0.3974
     12 C11        27.4662   13.7428   60.9324 C.3         1 MOL       0.0257
     13 C6         26.5893   17.6307   63.3617 C.3         1 MOL       0.1349
     14 O6         25.8088   18.7126   63.9244 O.3         1 MOL      -0.3186
     15 C7         27.8397   17.4409   64.2880 C.3         1 MOL       0.1156
     16 O7         28.5218   16.2292   63.9610 O.3         1 MOL      -0.3861
     17 C8         27.5189   17.5288   65.8208 C.3         1 MOL       0.1068
     18 O8         27.4293   18.9013   66.2105 O.3         1 MOL      -0.3869
     19 C9         28.5368   16.8273   66.7586 C.3         1 MOL       0.0727
     20 O9         28.4602   15.4111   66.6236 O.3         1 MOL      -0.3924
     21 H1         22.7236   17.8265   63.3685 H           1 MOL       0.0510
     22 H2         24.3127   16.9426   61.6079 H           1 MOL       0.0996
     23 H3         22.5338   15.6674   62.4684 H           1 MOL       0.2008
     24 H4         23.4423   15.1419   63.7638 H           1 MOL       0.2008
     25 H5         23.8599   14.6926   62.2117 H           1 MOL       0.2008
     26 H6         25.7192   15.7518   64.0419 H           1 MOL       0.0664
     27 H7         26.4487   15.9839   61.1870 H           1 MOL       0.1859
     28 H8         27.8544   12.7376   61.1258 H           1 MOL       0.0467
     29 H9         28.2909   14.3687   60.5800 H           1 MOL       0.0467
     30 H10        26.7108   13.6748   60.1442 H           1 MOL       0.0467
     31 H11        26.9416   17.9984   62.3898 H           1 MOL       0.0698
     32 H12        28.5447   18.2458   64.0648 H           1 MOL       0.0650
     33 H13        28.8027   16.3316   63.0272 H           1 MOL       0.2100
     34 H14        26.5400   17.0894   66.0180 H           1 MOL       0.0643
     35 H15        28.3328   19.2670   66.1032 H           1 MOL       0.2100
     36 H16        28.3143   17.0707   67.8009 H           1 MOL       0.0584
     37 H17        29.5539   17.1584   66.5379 H           1 MOL       0.0584
     38 H18        27.5649   15.1702   66.9484 H           1 MOL       0.2095
@<TRIPOS>BOND
     1     4     1   1
     2     1     3  ar
     3     1     2  ar
     4     4    14   1
     5     4     5   2
     6     5     6   1
     7     6     8   1
     8     6     7   1
     9     8    13   1
    10     8     9   1
    11     9    10  am
    12    10    12   1
    13    10    11   2
    14    13    15   1
    15    13    14   1
    16    15    17   1
    17    15    16   1
    18    17    19   1
    19    17    18   1
    20    19    20   1
    21     5    21   1
    22     6    22   1
    23     7    23   1
    24     7    24   1
    25     7    25   1
    26     8    26   1
    27     9    27   1
    28    12    28   1
    29    12    29   1
    30    12    30   1
    31    13    31   1
    32    15    32   1
    33    16    33   1
    34    17    34   1
    35    18    35   1
    36    19    36   1
    37    19    37   1
    38    20    38   1
@<TRIPOS>SUBSTRUCTURE
     1  MOL      1

