@<TRIPOS>MOLECULE
1f8c_ligand_008
    38    38
SMALL
GAST_HUCK
****
This file was generated by PARSER (from files_GN.cpp)

@<TRIPOS>ATOM
      1 C1         24.2075   19.7052   64.9674 C.2         1 MOL       0.0810
      2 O1A        23.8514   20.8871   64.4166 O.co2       1 MOL      -0.5623
      3 O1B        23.2332   19.0153   65.6023 O.co2       1 MOL      -0.5623
      4 C2         25.5381   19.3248   64.9971 C.2         1 MOL       0.1116
      5 C3         25.9449   18.0819   65.3338 C.2         1 MOL      -0.0085
      6 C4         27.3469   17.6916   65.4132 C.3         1 MOL       0.0210
      7 N4         27.6057   17.2705   66.8005 N.4         1 MOL       0.2321
      8 C5         28.3674   18.7938   64.9511 C.3         1 MOL       0.1228
      9 N5         28.9106   18.5554   63.6364 N.am        1 MOL      -0.2741
     10 C10        28.4972   19.0163   62.4636 C.2         1 MOL       0.1735
     11 O10        27.5145   19.7360   62.3530 O.2         1 MOL      -0.3974
     12 C11        29.2346   18.6471   61.2766 C.3         1 MOL       0.0257
     13 C6         27.7788   20.2393   65.0967 C.3         1 MOL       0.1349
     14 O6         26.4220   20.2706   64.6043 O.3         1 MOL      -0.3186
     15 C7         27.9275   20.8715   66.5318 C.3         1 MOL       0.1156
     16 O7         26.6492   21.2234   67.0687 O.3         1 MOL      -0.3861
     17 C8         28.8487   22.1317   66.5970 C.3         1 MOL       0.1068
     18 O8         28.4045   23.1208   65.6625 O.3         1 MOL      -0.3869
     19 C9         30.3506   21.8111   66.3656 C.3         1 MOL       0.0727
     20 O9         31.1390   23.0001   66.3558 O.3         1 MOL      -0.3924
     21 H1         25.2694   17.3969   65.5897 H           1 MOL       0.0510
     22 H2         27.4811   16.7976   64.8006 H           1 MOL       0.0996
     23 H3         26.9997   16.4774   67.0344 H           1 MOL       0.2008
     24 H4         27.4151   18.0439   67.4411 H           1 MOL       0.2008
     25 H5         28.5817   16.9847   66.8967 H           1 MOL       0.2008
     26 H6         29.2493   18.7323   65.5982 H           1 MOL       0.0664
     27 H7         29.6981   17.9886   63.6065 H           1 MOL       0.1859
     28 H8         28.8072   19.0986   60.3772 H           1 MOL       0.0467
     29 H9         29.2173   17.5608   61.1526 H           1 MOL       0.0467
     30 H10        30.2729   18.9761   61.3599 H           1 MOL       0.0467
     31 H11        28.3110   20.8869   64.3944 H           1 MOL       0.0698
     32 H12        28.3427   20.1313   67.2187 H           1 MOL       0.0650
     33 H13        26.7793   21.3146   68.0376 H           1 MOL       0.2100
     34 H14        28.7695   22.5773   67.5943 H           1 MOL       0.0643
     35 H15        27.9270   23.7904   66.1964 H           1 MOL       0.2100
     36 H16        30.5014   21.2928   65.4168 H           1 MOL       0.0584
     37 H17        30.7151   21.1683   67.1719 H           1 MOL       0.0584
     38 H18        30.9882   23.3969   65.4700 H           1 MOL       0.2095
@<TRIPOS>BOND
     1     4     1   1
     2     1     3  ar
     3     1     2  ar
     4     4    14   1
     5     4     5   2
     6     5     6   1
     7     6     8   1
     8     6     7   1
     9     8    13   1
    10     8     9   1
    11     9    10  am
    12    10    12   1
    13    10    11   2
    14    13    15   1
    15    13    14   1
    16    15    17   1
    17    15    16   1
    18    17    19   1
    19    17    18   1
    20    19    20   1
    21     5    21   1
    22     6    22   1
    23     7    23   1
    24     7    24   1
    25     7    25   1
    26     8    26   1
    27     9    27   1
    28    12    28   1
    29    12    29   1
    30    12    30   1
    31    13    31   1
    32    15    32   1
    33    16    33   1
    34    17    34   1
    35    18    35   1
    36    19    36   1
    37    19    37   1
    38    20    38   1
@<TRIPOS>SUBSTRUCTURE
     1  MOL      1

