@<TRIPOS>MOLECULE
1f8c_ligand_060
    38    38
SMALL
GAST_HUCK
****
This file was generated by PARSER (from files_GN.cpp)

@<TRIPOS>ATOM
      1 C1         29.5177   18.4300   61.3159 C.2         1 MOL       0.0810
      2 O1A        30.7661   17.9207   61.4507 O.co2       1 MOL      -0.5623
      3 O1B        29.2408   19.1061   60.1735 O.co2       1 MOL      -0.5623
      4 C2         28.6216   18.3654   62.3651 C.2         1 MOL       0.1116
      5 C3         27.2996   18.1505   62.2093 C.2         1 MOL      -0.0085
      6 C4         26.4530   18.1353   63.3946 C.3         1 MOL       0.0210
      7 N4         25.0168   18.0923   63.0621 N.4         1 MOL       0.2321
      8 C5         26.8366   19.3721   64.2655 C.3         1 MOL       0.1228
      9 N5         26.0423   19.4002   65.4625 N.am        1 MOL      -0.2741
     10 C10        25.0712   20.2584   65.7463 C.2         1 MOL       0.1735
     11 O10        24.7713   21.1721   64.9838 O.2         1 MOL      -0.3974
     12 C11        24.3056   20.0939   66.9575 C.3         1 MOL       0.0257
     13 C6         28.3861   19.3285   64.5628 C.3         1 MOL       0.1349
     14 O6         29.1085   18.4803   63.6298 O.3         1 MOL      -0.3186
     15 C7         29.0657   20.7400   64.6483 C.3         1 MOL       0.1156
     16 O7         30.2799   20.7740   63.8750 O.3         1 MOL      -0.3861
     17 C8         29.4344   21.1973   66.0989 C.3         1 MOL       0.1068
     18 O8         28.4869   20.7711   67.0696 O.3         1 MOL      -0.3869
     19 C9         29.6163   22.7312   66.2294 C.3         1 MOL       0.0727
     20 O9         28.5792   23.4295   65.5462 O.3         1 MOL      -0.3924
     21 H1         26.8998   18.0609   61.2991 H           1 MOL       0.0510
     22 H2         26.6751   17.2230   63.9583 H           1 MOL       0.0996
     23 H3         24.8330   17.2635   62.4877 H           1 MOL       0.2008
     24 H4         24.7320   18.9297   62.5511 H           1 MOL       0.2008
     25 H5         24.4819   18.0280   63.9271 H           1 MOL       0.2008
     26 H6         26.6142   20.2535   63.6402 H           1 MOL       0.0664
     27 H7         26.1953   18.6960   66.1071 H           1 MOL       0.1859
     28 H8         23.5141   20.8451   67.0473 H           1 MOL       0.0467
     29 H9         24.9624   20.1858   67.8248 H           1 MOL       0.0467
     30 H10        23.8422   19.1086   66.9738 H           1 MOL       0.0467
     31 H11        28.5356   18.8266   65.5188 H           1 MOL       0.0698
     32 H12        28.3986   21.4987   64.1968 H           1 MOL       0.0650
     33 H13        29.9892   20.7669   62.9379 H           1 MOL       0.2100
     34 H14        30.3732   20.7182   66.3708 H           1 MOL       0.0643
     35 H15        27.6401   21.2440   66.8845 H           1 MOL       0.2100
     36 H16        30.5764   23.0378   65.7989 H           1 MOL       0.0584
     37 H17        29.6194   23.0215   67.2829 H           1 MOL       0.0584
     38 H18        28.0490   23.8851   66.2446 H           1 MOL       0.2095
@<TRIPOS>BOND
     1     4     1   1
     2     1     3  ar
     3     1     2  ar
     4     4    14   1
     5     4     5   2
     6     5     6   1
     7     6     8   1
     8     6     7   1
     9     8    13   1
    10     8     9   1
    11     9    10  am
    12    10    12   1
    13    10    11   2
    14    13    15   1
    15    13    14   1
    16    15    17   1
    17    15    16   1
    18    17    19   1
    19    17    18   1
    20    19    20   1
    21     5    21   1
    22     6    22   1
    23     7    23   1
    24     7    24   1
    25     7    25   1
    26     8    26   1
    27     9    27   1
    28    12    28   1
    29    12    29   1
    30    12    30   1
    31    13    31   1
    32    15    32   1
    33    16    33   1
    34    17    34   1
    35    18    35   1
    36    19    36   1
    37    19    37   1
    38    20    38   1
@<TRIPOS>SUBSTRUCTURE
     1  MOL      1

