@<TRIPOS>MOLECULE
1f8c_ligand_069
    38    38
SMALL
GAST_HUCK
****
This file was generated by PARSER (from files_GN.cpp)

@<TRIPOS>ATOM
      1 C1         25.3297   20.1682   65.7881 C.2         1 MOL       0.0810
      2 O1A        24.6743   21.0176   64.9479 O.co2       1 MOL      -0.5623
      3 O1B        24.6479   19.1152   66.3183 O.co2       1 MOL      -0.5623
      4 C2         26.6365   20.4051   66.1149 C.2         1 MOL       0.1116
      5 C3         27.0017   21.4668   66.8720 C.2         1 MOL      -0.0085
      6 C4         28.4158   21.6846   67.0708 C.3         1 MOL       0.0210
      7 N4         28.6788   22.9633   67.7461 N.4         1 MOL       0.2321
      8 C5         29.1373   21.6009   65.6823 C.3         1 MOL       0.1228
      9 N5         30.5439   21.8065   65.7425 N.am        1 MOL      -0.2741
     10 C10        31.4426   21.1766   66.4935 C.2         1 MOL       0.1735
     11 O10        31.1309   20.2867   67.2803 O.2         1 MOL      -0.3974
     12 C11        32.8227   21.5967   66.4211 C.3         1 MOL       0.0257
     13 C6         28.6869   20.2795   64.9242 C.3         1 MOL       0.1349
     14 O6         27.5992   19.5904   65.6088 O.3         1 MOL      -0.3186
     15 C7         28.3662   20.4854   63.3969 C.3         1 MOL       0.1156
     16 O7         26.9506   20.5476   63.1715 O.3         1 MOL      -0.3861
     17 C8         29.0332   19.4265   62.4358 C.3         1 MOL       0.1068
     18 O8         30.4078   19.7775   62.2735 O.3         1 MOL      -0.3869
     19 C9         28.3485   19.2080   61.0579 C.3         1 MOL       0.0727
     20 O9         27.3073   20.1456   60.7500 O.3         1 MOL      -0.3924
     21 H1         26.3139   22.1035   67.2341 H           1 MOL       0.0510
     22 H2         28.7785   20.8926   67.7366 H           1 MOL       0.0996
     23 H3         28.1960   22.9868   68.6547 H           1 MOL       0.2008
     24 H4         28.3425   23.7419   67.1690 H           1 MOL       0.2008
     25 H5         29.6866   23.0725   67.9008 H           1 MOL       0.2008
     26 H6         28.7596   22.4519   65.1271 H           1 MOL       0.0664
     27 H7         30.9063   22.4895   65.1532 H           1 MOL       0.1859
     28 H8         33.4548   21.0825   67.1517 H           1 MOL       0.0467
     29 H9         32.8924   22.6729   66.6081 H           1 MOL       0.0467
     30 H10        33.2221   21.3914   65.4225 H           1 MOL       0.0467
     31 H11        29.5274   19.5845   65.0171 H           1 MOL       0.0698
     32 H12        28.7305   21.4548   63.0607 H           1 MOL       0.0650
     33 H13        26.6178   19.6490   63.4335 H           1 MOL       0.2100
     34 H14        29.0219   18.4474   62.9336 H           1 MOL       0.0643
     35 H15        30.4350   20.4151   61.5216 H           1 MOL       0.2100
     36 H16        27.8804   18.2075   61.0274 H           1 MOL       0.0584
     37 H17        29.0973   19.2439   60.2572 H           1 MOL       0.0584
     38 H18        27.7671   21.0208   60.6786 H           1 MOL       0.2095
@<TRIPOS>BOND
     1     4     1   1
     2     1     3  ar
     3     1     2  ar
     4     4    14   1
     5     4     5   2
     6     5     6   1
     7     6     8   1
     8     6     7   1
     9     8    13   1
    10     8     9   1
    11     9    10  am
    12    10    12   1
    13    10    11   2
    14    13    15   1
    15    13    14   1
    16    15    17   1
    17    15    16   1
    18    17    19   1
    19    17    18   1
    20    19    20   1
    21     5    21   1
    22     6    22   1
    23     7    23   1
    24     7    24   1
    25     7    25   1
    26     8    26   1
    27     9    27   1
    28    12    28   1
    29    12    29   1
    30    12    30   1
    31    13    31   1
    32    15    32   1
    33    16    33   1
    34    17    34   1
    35    18    35   1
    36    19    36   1
    37    19    37   1
    38    20    38   1
@<TRIPOS>SUBSTRUCTURE
     1  MOL      1

