@<TRIPOS>MOLECULE
1f8c_ligand_053
    38    38
SMALL
GAST_HUCK
****
This file was generated by PARSER (from files_GN.cpp)

@<TRIPOS>ATOM
      1 C1         26.6816   19.8912   69.0795 C.2         1 MOL       0.0810
      2 O1A        27.0537   20.9957   68.3651 O.co2       1 MOL      -0.5623
      3 O1B        27.5926   19.3780   69.9576 O.co2       1 MOL      -0.5623
      4 C2         25.6169   19.1392   68.6572 C.2         1 MOL       0.1116
      5 C3         24.8438   18.4469   69.5206 C.2         1 MOL      -0.0085
      6 C4         23.6440   17.7590   69.0817 C.3         1 MOL       0.0210
      7 N4         23.9885   16.3364   68.9434 N.4         1 MOL       0.2321
      8 C5         22.9731   18.3442   67.7726 C.3         1 MOL       0.1228
      9 N5         21.7684   19.0747   68.0772 N.am        1 MOL      -0.2741
     10 C10        20.6855   18.5996   68.6895 C.2         1 MOL       0.1735
     11 O10        20.6397   17.4648   69.1505 O.2         1 MOL      -0.3974
     12 C11        19.5314   19.4569   68.8175 C.3         1 MOL       0.0257
     13 C6         23.9660   19.2339   66.9279 C.3         1 MOL       0.1349
     14 O6         25.3507   19.0744   67.3302 O.3         1 MOL      -0.3186
     15 C7         23.8562   19.0882   65.3713 C.3         1 MOL       0.1156
     16 O7         22.6170   19.6713   64.9601 O.3         1 MOL      -0.3861
     17 C8         24.0010   17.6505   64.7634 C.3         1 MOL       0.1068
     18 O8         25.3474   17.1917   64.9922 O.3         1 MOL      -0.3869
     19 C9         23.6789   17.5286   63.2598 C.3         1 MOL       0.0727
     20 O9         22.3360   17.9257   62.9428 O.3         1 MOL      -0.3924
     21 H1         25.0471   18.4571   70.4993 H           1 MOL       0.0510
     22 H2         22.9254   17.8157   69.9112 H           1 MOL       0.0996
     23 H3         24.4671   16.0265   69.7964 H           1 MOL       0.2008
     24 H4         24.6058   16.2015   68.1414 H           1 MOL       0.2008
     25 H5         23.1405   15.7735   68.8313 H           1 MOL       0.2008
     26 H6         22.6580   17.4893   67.1649 H           1 MOL       0.0664
     27 H7         21.7001   19.9825   67.7272 H           1 MOL       0.1859
     28 H8         18.6994   18.9479   69.3195 H           1 MOL       0.0467
     29 H9         19.1940   19.7560   67.8191 H           1 MOL       0.0467
     30 H10        19.7876   20.3558   69.3934 H           1 MOL       0.0467
     31 H11        23.7523   20.2883   67.1477 H           1 MOL       0.0698
     32 H12        24.6381   19.7120   64.9334 H           1 MOL       0.0650
     33 H13        22.6840   19.8448   64.0044 H           1 MOL       0.2100
     34 H14        23.3273   16.9662   65.2909 H           1 MOL       0.0643
     35 H15        25.4468   16.3814   64.4454 H           1 MOL       0.2100
     36 H16        23.7832   16.4831   62.9515 H           1 MOL       0.0584
     37 H17        24.3698   18.1374   62.6692 H           1 MOL       0.0584
     38 H18        21.7589   17.2052   63.2847 H           1 MOL       0.2095
@<TRIPOS>BOND
     1     4     1   1
     2     1     3  ar
     3     1     2  ar
     4     4    14   1
     5     4     5   2
     6     5     6   1
     7     6     8   1
     8     6     7   1
     9     8    13   1
    10     8     9   1
    11     9    10  am
    12    10    12   1
    13    10    11   2
    14    13    15   1
    15    13    14   1
    16    15    17   1
    17    15    16   1
    18    17    19   1
    19    17    18   1
    20    19    20   1
    21     5    21   1
    22     6    22   1
    23     7    23   1
    24     7    24   1
    25     7    25   1
    26     8    26   1
    27     9    27   1
    28    12    28   1
    29    12    29   1
    30    12    30   1
    31    13    31   1
    32    15    32   1
    33    16    33   1
    34    17    34   1
    35    18    35   1
    36    19    36   1
    37    19    37   1
    38    20    38   1
@<TRIPOS>SUBSTRUCTURE
     1  MOL      1

