@<TRIPOS>MOLECULE
1f8c_ligand_014
    38    38
SMALL
GAST_HUCK
****
This file was generated by PARSER (from files_GN.cpp)

@<TRIPOS>ATOM
      1 C1         28.1535   18.8855   57.9693 C.2         1 MOL       0.0810
      2 O1A        27.3431   19.2022   56.9374 O.co2       1 MOL      -0.5623
      3 O1B        29.3553   19.5019   58.0041 O.co2       1 MOL      -0.5623
      4 C2         27.6283   18.3800   59.1312 C.2         1 MOL       0.1116
      5 C3         27.1953   17.1079   59.2075 C.2         1 MOL      -0.0085
      6 C4         26.6321   16.5844   60.4329 C.3         1 MOL       0.0210
      7 N4         25.1675   16.6659   60.3039 N.4         1 MOL       0.2321
      8 C5         27.1259   17.3141   61.7376 C.3         1 MOL       0.1228
      9 N5         28.0416   16.4923   62.4940 N.am        1 MOL      -0.2741
     10 C10        29.3272   16.2717   62.2473 C.2         1 MOL       0.1735
     11 O10        29.8759   16.7519   61.2563 O.2         1 MOL      -0.3974
     12 C11        30.1146   15.5288   63.1988 C.3         1 MOL       0.0257
     13 C6         27.6989   18.7613   61.4932 C.3         1 MOL       0.1349
     14 O6         27.4302   19.2317   60.1497 O.3         1 MOL      -0.3186
     15 C7         27.2035   19.8949   62.4645 C.3         1 MOL       0.1156
     16 O7         28.1802   20.9476   62.4312 O.3         1 MOL      -0.3861
     17 C8         26.9527   19.5778   63.9857 C.3         1 MOL       0.1068
     18 O8         27.7455   18.4784   64.4372 O.3         1 MOL      -0.3869
     19 C9         25.4661   19.3589   64.3859 C.3         1 MOL       0.0727
     20 O9         24.6640   20.4623   63.9538 O.3         1 MOL      -0.3924
     21 H1         27.2844   16.5001   58.4190 H           1 MOL       0.0510
     22 H2         26.8723   15.5179   60.4841 H           1 MOL       0.0996
     23 H3         24.8524   16.1649   59.4652 H           1 MOL       0.2008
     24 H4         24.8875   17.6476   60.2346 H           1 MOL       0.2008
     25 H5         24.7339   16.2459   61.1312 H           1 MOL       0.2008
     26 H6         26.2496   17.3981   62.3759 H           1 MOL       0.0664
     27 H7         27.6849   16.0935   63.3099 H           1 MOL       0.1859
     28 H8         31.1734   15.7764   63.1082 H           1 MOL       0.0467
     29 H9         29.9829   14.4634   63.0068 H           1 MOL       0.0467
     30 H10        29.8001   15.7573   64.2226 H           1 MOL       0.0467
     31 H11        28.7926   18.7198   61.5875 H           1 MOL       0.0698
     32 H12        26.2861   20.3147   62.0421 H           1 MOL       0.0650
     33 H13        28.3138   21.1889   61.4905 H           1 MOL       0.2100
     34 H14        27.2799   20.4422   64.5821 H           1 MOL       0.0643
     35 H15        28.6781   18.7602   64.3188 H           1 MOL       0.2100
     36 H16        25.3896   19.2934   65.4727 H           1 MOL       0.0584
     37 H17        25.0717   18.4322   63.9695 H           1 MOL       0.0584
     38 H18        23.9065   20.0617   63.4694 H           1 MOL       0.2095
@<TRIPOS>BOND
     1     4     1   1
     2     1     3  ar
     3     1     2  ar
     4     4    14   1
     5     4     5   2
     6     5     6   1
     7     6     8   1
     8     6     7   1
     9     8    13   1
    10     8     9   1
    11     9    10  am
    12    10    12   1
    13    10    11   2
    14    13    15   1
    15    13    14   1
    16    15    17   1
    17    15    16   1
    18    17    19   1
    19    17    18   1
    20    19    20   1
    21     5    21   1
    22     6    22   1
    23     7    23   1
    24     7    24   1
    25     7    25   1
    26     8    26   1
    27     9    27   1
    28    12    28   1
    29    12    29   1
    30    12    30   1
    31    13    31   1
    32    15    32   1
    33    16    33   1
    34    17    34   1
    35    18    35   1
    36    19    36   1
    37    19    37   1
    38    20    38   1
@<TRIPOS>SUBSTRUCTURE
     1  MOL      1

