@<TRIPOS>MOLECULE
1f8c_ligand_011
    38    38
SMALL
GAST_HUCK
****
This file was generated by PARSER (from files_GN.cpp)

@<TRIPOS>ATOM
      1 C1         29.0580   21.6494   65.5631 C.2         1 MOL       0.0810
      2 O1A        28.8839   22.9883   65.5110 O.co2       1 MOL      -0.5623
      3 O1B        29.5365   21.1203   66.7164 O.co2       1 MOL      -0.5623
      4 C2         28.2989   20.8490   64.7476 C.2         1 MOL       0.1116
      5 C3         28.8585   20.2943   63.6483 C.2         1 MOL      -0.0085
      6 C4         28.0835   19.5060   62.7063 C.3         1 MOL       0.0210
      7 N4         28.3566   19.9971   61.3462 N.4         1 MOL       0.2321
      8 C5         26.5366   19.5109   62.9724 C.3         1 MOL       0.1228
      9 N5         25.8557   18.4380   62.3024 N.am        1 MOL      -0.2741
     10 C10        25.8354   17.1499   62.6306 C.2         1 MOL       0.1735
     11 O10        26.3939   16.7296   63.6450 O.2         1 MOL      -0.3974
     12 C11        25.1083   16.2301   61.7911 C.3         1 MOL       0.0257
     13 C6         26.2601   19.6198   64.5163 C.3         1 MOL       0.1349
     14 O6         26.9684   20.7828   65.0104 O.3         1 MOL      -0.3186
     15 C7         24.7437   19.7018   64.8876 C.3         1 MOL       0.1156
     16 O7         24.0541   20.6632   64.0961 O.3         1 MOL      -0.3861
     17 C8         24.4383   19.9704   66.3955 C.3         1 MOL       0.1068
     18 O8         23.0445   19.7075   66.5909 O.3         1 MOL      -0.3869
     19 C9         24.7799   21.3867   66.9644 C.3         1 MOL       0.0727
     20 O9         25.4443   22.2648   66.0544 O.3         1 MOL      -0.3924
     21 H1         29.8408   20.3669   63.4909 H           1 MOL       0.0510
     22 H2         28.4661   18.4815   62.7637 H           1 MOL       0.0996
     23 H3         29.3687   20.0244   61.1846 H           1 MOL       0.2008
     24 H4         27.9742   20.9458   61.2481 H           1 MOL       0.2008
     25 H5         27.9119   19.3755   60.6599 H           1 MOL       0.2008
     26 H6         26.1417   20.4323   62.5340 H           1 MOL       0.0664
     27 H7         25.3721   18.6803   61.4899 H           1 MOL       0.1859
     28 H8         25.1293   15.2157   62.2005 H           1 MOL       0.0467
     29 H9         25.5522   16.2107   60.7910 H           1 MOL       0.0467
     30 H10        24.0648   16.5512   61.7105 H           1 MOL       0.0467
     31 H11        26.6706   18.7312   65.0169 H           1 MOL       0.0698
     32 H12        24.3083   18.7262   64.6467 H           1 MOL       0.0650
     33 H13        23.5366   20.1367   63.4549 H           1 MOL       0.2100
     34 H14        24.9815   19.2267   66.9830 H           1 MOL       0.0643
     35 H15        22.9894   19.2387   67.4501 H           1 MOL       0.2100
     36 H16        25.4167   21.2745   67.8516 H           1 MOL       0.0584
     37 H17        23.8619   21.8951   67.2842 H           1 MOL       0.0584
     38 H18        25.7257   23.0328   66.6079 H           1 MOL       0.2095
@<TRIPOS>BOND
     1     4     1   1
     2     1     3  ar
     3     1     2  ar
     4     4    14   1
     5     4     5   2
     6     5     6   1
     7     6     8   1
     8     6     7   1
     9     8    13   1
    10     8     9   1
    11     9    10  am
    12    10    12   1
    13    10    11   2
    14    13    15   1
    15    13    14   1
    16    15    17   1
    17    15    16   1
    18    17    19   1
    19    17    18   1
    20    19    20   1
    21     5    21   1
    22     6    22   1
    23     7    23   1
    24     7    24   1
    25     7    25   1
    26     8    26   1
    27     9    27   1
    28    12    28   1
    29    12    29   1
    30    12    30   1
    31    13    31   1
    32    15    32   1
    33    16    33   1
    34    17    34   1
    35    18    35   1
    36    19    36   1
    37    19    37   1
    38    20    38   1
@<TRIPOS>SUBSTRUCTURE
     1  MOL      1

