@<TRIPOS>MOLECULE
1f8c_ligand_038
    38    38
SMALL
GAST_HUCK
****
This file was generated by PARSER (from files_GN.cpp)

@<TRIPOS>ATOM
      1 C1         27.9655   18.8195   59.1397 C.2         1 MOL       0.0810
      2 O1A        27.7582   19.8319   58.2396 O.co2       1 MOL      -0.5623
      3 O1B        27.7518   17.5252   58.7659 O.co2       1 MOL      -0.5623
      4 C2         28.5033   19.0610   60.4014 C.2         1 MOL       0.1116
      5 C3         27.8773   19.9082   61.2614 C.2         1 MOL      -0.0085
      6 C4         28.4760   20.1658   62.5566 C.3         1 MOL       0.0210
      7 N4         29.3698   21.3195   62.3507 N.4         1 MOL       0.2321
      8 C5         29.2612   18.9504   63.1433 C.3         1 MOL       0.1228
      9 N5         28.4842   18.1521   64.0515 N.am        1 MOL      -0.2741
     10 C10        27.2658   17.6514   63.8931 C.2         1 MOL       0.1735
     11 O10        26.5536   17.9488   62.9296 O.2         1 MOL      -0.3974
     12 C11        26.7547   16.7520   64.8955 C.3         1 MOL       0.0257
     13 C6         29.9446   18.0714   62.0213 C.3         1 MOL       0.1349
     14 O6         29.7373   18.5376   60.6746 O.3         1 MOL      -0.3186
     15 C7         31.4931   17.9464   62.2080 C.3         1 MOL       0.1156
     16 O7         32.1732   18.9800   61.4901 O.3         1 MOL      -0.3861
     17 C8         32.0868   16.5406   61.8488 C.3         1 MOL       0.1068
     18 O8         31.5774   15.5808   62.8017 O.3         1 MOL      -0.3869
     19 C9         33.6476   16.4286   61.9438 C.3         1 MOL       0.0727
     20 O9         34.3435   17.6854   61.8714 O.3         1 MOL      -0.3924
     21 H1         26.9595   20.2710   61.0538 H           1 MOL       0.0510
     22 H2         27.6911   20.4964   63.2451 H           1 MOL       0.0996
     23 H3         28.8288   22.1115   61.9762 H           1 MOL       0.2008
     24 H4         30.1138   21.0743   61.6705 H           1 MOL       0.2008
     25 H5         29.7992   21.5922   63.2430 H           1 MOL       0.2008
     26 H6         30.0298   19.3843   63.7886 H           1 MOL       0.0664
     27 H7         28.9411   17.8875   64.8626 H           1 MOL       0.1859
     28 H8         25.7258   16.4454   64.6774 H           1 MOL       0.0467
     29 H9         26.7713   17.2366   65.8768 H           1 MOL       0.0467
     30 H10        27.3787   15.8526   64.9349 H           1 MOL       0.0467
     31 H11        29.4885   17.0774   62.0671 H           1 MOL       0.0698
     32 H12        31.7348   18.0846   63.2672 H           1 MOL       0.0650
     33 H13        31.4785   19.4103   60.9188 H           1 MOL       0.2100
     34 H14        31.7507   16.2249   60.8517 H           1 MOL       0.0643
     35 H15        30.6474   15.3793   62.5111 H           1 MOL       0.2100
     36 H16        34.0101   15.7599   61.1396 H           1 MOL       0.0584
     37 H17        33.9317   15.9756   62.9101 H           1 MOL       0.0584
     38 H18        34.6716   17.7213   60.9345 H           1 MOL       0.2095
@<TRIPOS>BOND
     1     4     1   1
     2     1     3  ar
     3     1     2  ar
     4     4    14   1
     5     4     5   2
     6     5     6   1
     7     6     8   1
     8     6     7   1
     9     8    13   1
    10     8     9   1
    11     9    10  am
    12    10    12   1
    13    10    11   2
    14    13    15   1
    15    13    14   1
    16    15    17   1
    17    15    16   1
    18    17    19   1
    19    17    18   1
    20    19    20   1
    21     5    21   1
    22     6    22   1
    23     7    23   1
    24     7    24   1
    25     7    25   1
    26     8    26   1
    27     9    27   1
    28    12    28   1
    29    12    29   1
    30    12    30   1
    31    13    31   1
    32    15    32   1
    33    16    33   1
    34    17    34   1
    35    18    35   1
    36    19    36   1
    37    19    37   1
    38    20    38   1
@<TRIPOS>SUBSTRUCTURE
     1  MOL      1

