@<TRIPOS>MOLECULE
1f8c_ligand_087
    38    38
SMALL
GAST_HUCK
****
This file was generated by PARSER (from files_GN.cpp)

@<TRIPOS>ATOM
      1 C1         20.4470   19.3419   68.3917 C.2         1 MOL       0.0810
      2 O1A        20.2045   20.6671   68.4803 O.co2       1 MOL      -0.5623
      3 O1B        19.3737   18.5438   68.1914 O.co2       1 MOL      -0.5623
      4 C2         21.7409   18.8492   68.4901 C.2         1 MOL       0.1116
      5 C3         22.0038   17.5487   68.7238 C.2         1 MOL      -0.0085
      6 C4         23.3601   17.0278   68.8292 C.3         1 MOL       0.0210
      7 N4         23.4621   16.2123   70.0418 N.4         1 MOL       0.2321
      8 C5         24.4858   18.1134   68.8471 C.3         1 MOL       0.1228
      9 N5         25.7113   17.5309   68.3709 N.am        1 MOL      -0.2741
     10 C10        26.9454   17.8286   68.7490 C.2         1 MOL       0.1735
     11 O10        27.1869   18.7194   69.5565 O.2         1 MOL      -0.3974
     12 C11        28.0403   17.0979   68.1508 C.3         1 MOL       0.0257
     13 C6         24.0512   19.3391   67.9856 C.3         1 MOL       0.1349
     14 O6         22.7324   19.7605   68.4194 O.3         1 MOL      -0.3186
     15 C7         25.0120   20.5645   68.1201 C.3         1 MOL       0.1156
     16 O7         25.1194   20.8839   69.5079 O.3         1 MOL      -0.3861
     17 C8         24.5462   21.7996   67.2759 C.3         1 MOL       0.1068
     18 O8         25.2204   21.8361   66.0097 O.3         1 MOL      -0.3869
     19 C9         24.7554   23.1788   67.9602 C.3         1 MOL       0.0727
     20 O9         26.0198   23.2730   68.6146 O.3         1 MOL      -0.3924
     21 H1         21.2598   16.8916   68.7628 H           1 MOL       0.0510
     22 H2         23.5023   16.3656   67.9695 H           1 MOL       0.0996
     23 H3         22.7338   15.4982   70.0263 H           1 MOL       0.2008
     24 H4         23.3378   16.7998   70.8687 H           1 MOL       0.2008
     25 H5         24.3785   15.7596   70.0809 H           1 MOL       0.2008
     26 H6         24.5973   18.4591   69.8805 H           1 MOL       0.0664
     27 H7         25.6235   16.8158   67.7157 H           1 MOL       0.1859
     28 H8         29.0065   17.4630   68.5061 H           1 MOL       0.0467
     29 H9         28.0075   17.2083   67.0612 H           1 MOL       0.0467
     30 H10        27.9538   16.0388   68.4091 H           1 MOL       0.0467
     31 H11        24.0011   19.0342   66.9317 H           1 MOL       0.0698
     32 H12        26.0061   20.2872   67.7712 H           1 MOL       0.0650
     33 H13        25.9422   21.4049   69.5976 H           1 MOL       0.2100
     34 H14        23.4731   21.7111   67.0693 H           1 MOL       0.0643
     35 H15        25.0471   20.9592   65.5984 H           1 MOL       0.2100
     36 H16        23.9677   23.3418   68.7033 H           1 MOL       0.0584
     37 H17        24.6831   23.9770   67.2162 H           1 MOL       0.0584
     38 H18        26.6786   23.3792   67.8910 H           1 MOL       0.2095
@<TRIPOS>BOND
     1     4     1   1
     2     1     3  ar
     3     1     2  ar
     4     4    14   1
     5     4     5   2
     6     5     6   1
     7     6     8   1
     8     6     7   1
     9     8    13   1
    10     8     9   1
    11     9    10  am
    12    10    12   1
    13    10    11   2
    14    13    15   1
    15    13    14   1
    16    15    17   1
    17    15    16   1
    18    17    19   1
    19    17    18   1
    20    19    20   1
    21     5    21   1
    22     6    22   1
    23     7    23   1
    24     7    24   1
    25     7    25   1
    26     8    26   1
    27     9    27   1
    28    12    28   1
    29    12    29   1
    30    12    30   1
    31    13    31   1
    32    15    32   1
    33    16    33   1
    34    17    34   1
    35    18    35   1
    36    19    36   1
    37    19    37   1
    38    20    38   1
@<TRIPOS>SUBSTRUCTURE
     1  MOL      1

