@<TRIPOS>MOLECULE
1f8c_ligand_083
    38    38
SMALL
GAST_HUCK
****
This file was generated by PARSER (from files_GN.cpp)

@<TRIPOS>ATOM
      1 C1         26.6299   18.1646   60.4109 C.2         1 MOL       0.0810
      2 O1A        26.9843   19.4820   60.4329 O.co2       1 MOL      -0.5623
      3 O1B        27.4283   17.2938   59.7246 O.co2       1 MOL      -0.5623
      4 C2         25.6289   17.6971   61.2211 C.2         1 MOL       0.1116
      5 C3         24.6306   16.9259   60.7610 C.2         1 MOL      -0.0085
      6 C4         23.5907   16.4949   61.6593 C.3         1 MOL       0.0210
      7 N4         22.5568   17.5341   61.7855 N.4         1 MOL       0.2321
      8 C5         24.1524   16.1476   63.0852 C.3         1 MOL       0.1228
      9 N5         24.4847   14.7441   63.1395 N.am        1 MOL      -0.2741
     10 C10        25.3380   14.0634   62.3825 C.2         1 MOL       0.1735
     11 O10        26.0937   14.6091   61.5839 O.2         1 MOL      -0.3974
     12 C11        25.3301   12.6206   62.4352 C.3         1 MOL       0.0257
     13 C6         25.3258   17.1203   63.5312 C.3         1 MOL       0.1349
     14 O6         25.6256   18.1093   62.5171 O.3         1 MOL      -0.3186
     15 C7         25.1748   17.8650   64.9170 C.3         1 MOL       0.1156
     16 O7         24.2428   17.2099   65.7844 O.3         1 MOL      -0.3861
     17 C8         24.8403   19.3977   64.8276 C.3         1 MOL       0.1068
     18 O8         26.0074   20.1560   64.5088 O.3         1 MOL      -0.3869
     19 C9         24.2775   20.0194   66.1348 C.3         1 MOL       0.0727
     20 O9         22.9086   19.6754   66.3220 O.3         1 MOL      -0.3924
     21 H1         24.6400   16.6092   59.8255 H           1 MOL       0.0510
     22 H2         23.0777   15.6331   61.2295 H           1 MOL       0.0996
     23 H3         22.1849   17.7694   60.8607 H           1 MOL       0.2008
     24 H4         22.9462   18.3706   62.2262 H           1 MOL       0.2008
     25 H5         21.7888   17.1731   62.3746 H           1 MOL       0.2008
     26 H6         23.3140   16.2524   63.7790 H           1 MOL       0.0664
     27 H7         23.9525   14.2141   63.7539 H           1 MOL       0.1859
     28 H8         26.0125   12.1897   61.6974 H           1 MOL       0.0467
     29 H9         24.3268   12.2454   62.2291 H           1 MOL       0.0467
     30 H10        25.6426   12.2843   63.4258 H           1 MOL       0.0467
     31 H11        26.2242   16.5102   63.6274 H           1 MOL       0.0698
     32 H12        26.1381   17.8120   65.4416 H           1 MOL       0.0650
     33 H13        24.7784   16.6659   66.4073 H           1 MOL       0.2100
     34 H14        24.1035   19.5592   64.0405 H           1 MOL       0.0643
     35 H15        26.5918   19.5856   63.9663 H           1 MOL       0.2100
     36 H16        24.3217   21.1103   66.0702 H           1 MOL       0.0584
     37 H17        24.8739   19.7164   67.0023 H           1 MOL       0.0584
     38 H18        22.8740   19.1212   67.1584 H           1 MOL       0.2095
@<TRIPOS>BOND
     1     4     1   1
     2     1     3  ar
     3     1     2  ar
     4     4    14   1
     5     4     5   2
     6     5     6   1
     7     6     8   1
     8     6     7   1
     9     8    13   1
    10     8     9   1
    11     9    10  am
    12    10    12   1
    13    10    11   2
    14    13    15   1
    15    13    14   1
    16    15    17   1
    17    15    16   1
    18    17    19   1
    19    17    18   1
    20    19    20   1
    21     5    21   1
    22     6    22   1
    23     7    23   1
    24     7    24   1
    25     7    25   1
    26     8    26   1
    27     9    27   1
    28    12    28   1
    29    12    29   1
    30    12    30   1
    31    13    31   1
    32    15    32   1
    33    16    33   1
    34    17    34   1
    35    18    35   1
    36    19    36   1
    37    19    37   1
    38    20    38   1
@<TRIPOS>SUBSTRUCTURE
     1  MOL      1

