@<TRIPOS>MOLECULE
1f8c_ligand_025
    38    38
SMALL
GAST_HUCK
****
This file was generated by PARSER (from files_GN.cpp)

@<TRIPOS>ATOM
      1 C1         28.6027   18.9756   57.6164 C.2         1 MOL       0.0810
      2 O1A        27.8757   19.2376   56.5024 O.co2       1 MOL      -0.5623
      3 O1B        29.9063   19.3351   57.5819 O.co2       1 MOL      -0.5623
      4 C2         28.0326   18.5164   58.7859 C.2         1 MOL       0.1116
      5 C3         27.0339   17.6031   58.7818 C.2         1 MOL      -0.0085
      6 C4         26.4937   17.0256   60.0035 C.3         1 MOL       0.0210
      7 N4         25.0520   16.7646   59.8585 N.4         1 MOL       0.2321
      8 C5         26.7529   17.9398   61.2389 C.3         1 MOL       0.1228
      9 N5         26.4004   17.3368   62.4970 N.am        1 MOL      -0.2741
     10 C10        26.9142   16.2633   63.0759 C.2         1 MOL       0.1735
     11 O10        27.6813   15.5012   62.4916 O.2         1 MOL      -0.3974
     12 C11        26.6050   16.0224   64.4595 C.3         1 MOL       0.0257
     13 C6         28.2355   18.4494   61.1999 C.3         1 MOL       0.1349
     14 O6         28.4911   19.0821   59.9188 O.3         1 MOL      -0.3186
     15 C7         28.5630   19.4396   62.3817 C.3         1 MOL       0.1156
     16 O7         27.9231   20.6872   62.1373 O.3         1 MOL      -0.3861
     17 C8         30.0721   19.6477   62.7653 C.3         1 MOL       0.1068
     18 O8         30.4869   21.0062   62.5699 O.3         1 MOL      -0.3869
     19 C9         31.1166   18.7054   62.1103 C.3         1 MOL       0.0727
     20 O9         30.7664   17.3393   62.3458 O.3         1 MOL      -0.3924
     21 H1         26.7506   17.1833   57.9177 H           1 MOL       0.0510
     22 H2         26.9757   16.0554   60.1387 H           1 MOL       0.0996
     23 H3         24.8999   16.1518   59.0604 H           1 MOL       0.2008
     24 H4         24.5596   17.6464   59.6988 H           1 MOL       0.2008
     25 H5         24.6852   16.3164   60.7025 H           1 MOL       0.2008
     26 H6         26.1127   18.8231   61.1468 H           1 MOL       0.0664
     27 H7         25.7668   17.8500   63.0468 H           1 MOL       0.1859
     28 H8         26.9615   15.0409   64.7873 H           1 MOL       0.0467
     29 H9         25.5223   16.0696   64.6053 H           1 MOL       0.0467
     30 H10        27.0817   16.7900   65.0859 H           1 MOL       0.0467
     31 H11        28.8925   17.5653   61.2832 H           1 MOL       0.0698
     32 H12        28.0992   19.0519   63.2802 H           1 MOL       0.0650
     33 H13        28.3739   21.0805   61.3569 H           1 MOL       0.2100
     34 H14        30.1711   19.4934   63.8487 H           1 MOL       0.0643
     35 H15        30.3582   21.1924   61.6269 H           1 MOL       0.2100
     36 H16        32.1069   18.8815   62.5467 H           1 MOL       0.0584
     37 H17        31.1806   18.9037   61.0332 H           1 MOL       0.0584
     38 H18        31.4004   16.8150   61.7874 H           1 MOL       0.2095
@<TRIPOS>BOND
     1     4     1   1
     2     1     3  ar
     3     1     2  ar
     4     4    14   1
     5     4     5   2
     6     5     6   1
     7     6     8   1
     8     6     7   1
     9     8    13   1
    10     8     9   1
    11     9    10  am
    12    10    12   1
    13    10    11   2
    14    13    15   1
    15    13    14   1
    16    15    17   1
    17    15    16   1
    18    17    19   1
    19    17    18   1
    20    19    20   1
    21     5    21   1
    22     6    22   1
    23     7    23   1
    24     7    24   1
    25     7    25   1
    26     8    26   1
    27     9    27   1
    28    12    28   1
    29    12    29   1
    30    12    30   1
    31    13    31   1
    32    15    32   1
    33    16    33   1
    34    17    34   1
    35    18    35   1
    36    19    36   1
    37    19    37   1
    38    20    38   1
@<TRIPOS>SUBSTRUCTURE
     1  MOL      1

