@<TRIPOS>MOLECULE
1f8c_ligand_085
    38    38
SMALL
GAST_HUCK
****
This file was generated by PARSER (from files_GN.cpp)

@<TRIPOS>ATOM
      1 C1         26.8656   19.2445   64.9811 C.2         1 MOL       0.0810
      2 O1A        26.5442   20.5629   64.9733 O.co2       1 MOL      -0.5623
      3 O1B        28.0109   18.8869   65.6185 O.co2       1 MOL      -0.5623
      4 C2         26.1400   18.3034   64.2750 C.2         1 MOL       0.1116
      5 C3         24.8251   18.4723   63.9959 C.2         1 MOL      -0.0085
      6 C4         24.0797   17.5323   63.1735 C.3         1 MOL       0.0210
      7 N4         22.8313   17.1866   63.8737 N.4         1 MOL       0.2321
      8 C5         24.8583   16.2356   62.7910 C.3         1 MOL       0.1228
      9 N5         24.3212   15.6744   61.5853 N.am        1 MOL      -0.2741
     10 C10        23.4850   14.6476   61.4873 C.2         1 MOL       0.1735
     11 O10        23.0419   14.0675   62.4737 O.2         1 MOL      -0.3974
     12 C11        23.0745   14.2140   60.1758 C.3         1 MOL       0.0257
     13 C6         26.3674   16.5812   62.6332 C.3         1 MOL       0.1349
     14 O6         26.8002   17.1883   63.8727 O.3         1 MOL      -0.3186
     15 C7         27.2523   15.3415   62.2562 C.3         1 MOL       0.1156
     16 O7         28.3703   15.2058   63.1395 O.3         1 MOL      -0.3861
     17 C8         27.7785   15.3192   60.7857 C.3         1 MOL       0.1068
     18 O8         26.8902   15.9865   59.8808 O.3         1 MOL      -0.3869
     19 C9         28.0146   13.8800   60.2417 C.3         1 MOL       0.0727
     20 O9         26.8723   13.3693   59.5484 O.3         1 MOL      -0.3924
     21 H1         24.3555   19.3059   64.2822 H           1 MOL       0.0510
     22 H2         23.8079   18.0680   62.2614 H           1 MOL       0.0996
     23 H3         22.3614   18.0484   64.1616 H           1 MOL       0.2008
     24 H4         23.0399   16.6065   64.6932 H           1 MOL       0.2008
     25 H5         22.2131   16.6662   63.2496 H           1 MOL       0.2008
     26 H6         24.7825   15.5247   63.6232 H           1 MOL       0.0664
     27 H7         24.5771   16.1016   60.7520 H           1 MOL       0.1859
     28 H8         22.3378   13.4051   60.2344 H           1 MOL       0.0467
     29 H9         23.9438   13.8491   59.6196 H           1 MOL       0.0467
     30 H10        22.6240   15.0483   59.6295 H           1 MOL       0.0467
     31 H11        26.4709   17.3466   61.8572 H           1 MOL       0.0698
     32 H12        26.6694   14.4292   62.4116 H           1 MOL       0.0650
     33 H13        28.8687   16.0463   63.0719 H           1 MOL       0.2100
     34 H14        28.7324   15.8587   60.7497 H           1 MOL       0.0643
     35 H15        27.3865   16.0789   59.0386 H           1 MOL       0.2100
     36 H16        28.2661   13.1952   61.0596 H           1 MOL       0.0584
     37 H17        28.8514   13.8870   59.5371 H           1 MOL       0.0584
     38 H18        26.2128   13.1469   60.2412 H           1 MOL       0.2095
@<TRIPOS>BOND
     1     4     1   1
     2     1     3  ar
     3     1     2  ar
     4     4    14   1
     5     4     5   2
     6     5     6   1
     7     6     8   1
     8     6     7   1
     9     8    13   1
    10     8     9   1
    11     9    10  am
    12    10    12   1
    13    10    11   2
    14    13    15   1
    15    13    14   1
    16    15    17   1
    17    15    16   1
    18    17    19   1
    19    17    18   1
    20    19    20   1
    21     5    21   1
    22     6    22   1
    23     7    23   1
    24     7    24   1
    25     7    25   1
    26     8    26   1
    27     9    27   1
    28    12    28   1
    29    12    29   1
    30    12    30   1
    31    13    31   1
    32    15    32   1
    33    16    33   1
    34    17    34   1
    35    18    35   1
    36    19    36   1
    37    19    37   1
    38    20    38   1
@<TRIPOS>SUBSTRUCTURE
     1  MOL      1

