@<TRIPOS>MOLECULE
1f8c_ligand_017
    38    38
SMALL
GAST_HUCK
****
This file was generated by PARSER (from files_GN.cpp)

@<TRIPOS>ATOM
      1 C1         25.2060   19.8323   63.8015 C.2         1 MOL       0.0810
      2 O1A        24.3350   18.7908   63.7417 O.co2       1 MOL      -0.5623
      3 O1B        24.7772   21.0040   64.3630 O.co2       1 MOL      -0.5623
      4 C2         26.4430   19.7355   63.1840 C.2         1 MOL       0.1116
      5 C3         27.5866   20.1158   63.8029 C.2         1 MOL      -0.0085
      6 C4         28.8806   19.9360   63.1959 C.3         1 MOL       0.0210
      7 N4         29.3735   21.2622   62.7922 N.4         1 MOL       0.2321
      8 C5         28.9306   18.9136   61.9945 C.3         1 MOL       0.1228
      9 N5         29.7466   17.7681   62.2708 N.am        1 MOL      -0.2741
     10 C10        29.6996   16.9638   63.3255 C.2         1 MOL       0.1735
     11 O10        28.9650   17.1987   64.2892 O.2         1 MOL      -0.3974
     12 C11        30.5520   15.8006   63.3658 C.3         1 MOL       0.0257
     13 C6         27.5163   18.4677   61.4624 C.3         1 MOL       0.1349
     14 O6         26.4640   19.3554   61.8842 O.3         1 MOL      -0.3186
     15 C7         27.4609   18.3282   59.9040 C.3         1 MOL       0.1156
     16 O7         27.0847   19.5840   59.3351 O.3         1 MOL      -0.3861
     17 C8         26.5266   17.1986   59.3849 C.3         1 MOL       0.1068
     18 O8         27.0489   15.9450   59.8206 O.3         1 MOL      -0.3869
     19 C9         26.3309   17.1582   57.8372 C.3         1 MOL       0.0727
     20 O9         27.2700   17.9471   57.0976 O.3         1 MOL      -0.3924
     21 H1         27.5431   20.4809   64.7348 H           1 MOL       0.0510
     22 H2         29.5669   19.6143   63.9811 H           1 MOL       0.0996
     23 H3         29.2408   21.9212   63.5688 H           1 MOL       0.2008
     24 H4         28.8806   21.6058   61.9547 H           1 MOL       0.2008
     25 H5         30.3756   21.1933   62.5791 H           1 MOL       0.2008
     26 H6         29.4465   19.4249   61.1779 H           1 MOL       0.0664
     27 H7         30.3796   17.5123   61.5801 H           1 MOL       0.1859
     28 H8         30.5614   15.3247   64.3547 H           1 MOL       0.0467
     29 H9         31.5842   16.0772   63.1089 H           1 MOL       0.0467
     30 H10        30.1942   15.0631   62.6348 H           1 MOL       0.0467
     31 H11        27.2726   17.5040   61.9202 H           1 MOL       0.0698
     32 H12        28.4596   18.1114   59.5340 H           1 MOL       0.0650
     33 H13        27.7614   20.2381   59.6231 H           1 MOL       0.2100
     34 H14        25.5533   17.3143   59.8574 H           1 MOL       0.0643
     35 H15        27.9331   15.8641   59.4067 H           1 MOL       0.2100
     36 H16        25.3172   17.5078   57.5873 H           1 MOL       0.0584
     37 H17        26.4197   16.1242   57.4703 H           1 MOL       0.0584
     38 H18        26.9844   17.8342   56.1654 H           1 MOL       0.2095
@<TRIPOS>BOND
     1     4     1   1
     2     1     3  ar
     3     1     2  ar
     4     4    14   1
     5     4     5   2
     6     5     6   1
     7     6     8   1
     8     6     7   1
     9     8    13   1
    10     8     9   1
    11     9    10  am
    12    10    12   1
    13    10    11   2
    14    13    15   1
    15    13    14   1
    16    15    17   1
    17    15    16   1
    18    17    19   1
    19    17    18   1
    20    19    20   1
    21     5    21   1
    22     6    22   1
    23     7    23   1
    24     7    24   1
    25     7    25   1
    26     8    26   1
    27     9    27   1
    28    12    28   1
    29    12    29   1
    30    12    30   1
    31    13    31   1
    32    15    32   1
    33    16    33   1
    34    17    34   1
    35    18    35   1
    36    19    36   1
    37    19    37   1
    38    20    38   1
@<TRIPOS>SUBSTRUCTURE
     1  MOL      1

