@<TRIPOS>MOLECULE
1f8c_ligand_089
    38    38
SMALL
GAST_HUCK
****
This file was generated by PARSER (from files_GN.cpp)

@<TRIPOS>ATOM
      1 C1         27.6953   18.1775   69.7937 C.2         1 MOL       0.0810
      2 O1A        28.1601   19.1431   68.9659 O.co2       1 MOL      -0.5623
      3 O1B        28.4629   17.8799   70.8673 O.co2       1 MOL      -0.5623
      4 C2         26.4676   17.5756   69.5574 C.2         1 MOL       0.1116
      5 C3         25.9783   16.5841   70.3300 C.2         1 MOL      -0.0085
      6 C4         24.6735   15.9768   70.0990 C.3         1 MOL       0.0210
      7 N4         24.8871   14.5310   69.9028 N.4         1 MOL       0.2321
      8 C5         23.8595   16.5636   68.8912 C.3         1 MOL       0.1228
      9 N5         22.4517   16.5900   69.1991 N.am        1 MOL      -0.2741
     10 C10        21.4663   15.9942   68.5374 C.2         1 MOL       0.1735
     11 O10        21.6672   15.2884   67.5549 O.2         1 MOL      -0.3974
     12 C11        20.1036   16.2043   68.9711 C.3         1 MOL       0.0257
     13 C6         24.3553   18.0001   68.5239 C.3         1 MOL       0.1349
     14 O6         25.7999   17.9791   68.4575 O.3         1 MOL      -0.3186
     15 C7         23.8008   18.5226   67.1594 C.3         1 MOL       0.1156
     16 O7         24.3878   17.8185   66.0596 O.3         1 MOL      -0.3861
     17 C8         23.9664   20.0550   66.9255 C.3         1 MOL       0.1068
     18 O8         23.3473   20.4059   65.6883 O.3         1 MOL      -0.3869
     19 C9         25.4134   20.6176   66.9381 C.3         1 MOL       0.0727
     20 O9         26.2978   19.9131   66.0689 O.3         1 MOL      -0.3924
     21 H1         26.4968   16.2657   71.1184 H           1 MOL       0.0510
     22 H2         24.0986   16.1041   71.0243 H           1 MOL       0.0996
     23 H3         25.2627   14.1101   70.7556 H           1 MOL       0.2008
     24 H4         25.5465   14.3910   69.1337 H           1 MOL       0.2008
     25 H5         24.0018   14.0852   69.6672 H           1 MOL       0.2008
     26 H6         24.0488   15.9282   68.0244 H           1 MOL       0.0664
     27 H7         22.1931   17.1268   69.9664 H           1 MOL       0.1859
     28 H8         19.3853   15.7374   68.2881 H           1 MOL       0.0467
     29 H9         19.8892   17.2767   69.0120 H           1 MOL       0.0467
     30 H10        19.9662   15.7731   69.9646 H           1 MOL       0.0467
     31 H11        24.0442   18.6935   69.3139 H           1 MOL       0.0698
     32 H12        22.7270   18.3196   67.1281 H           1 MOL       0.0650
     33 H13        24.1875   16.8672   66.1940 H           1 MOL       0.2100
     34 H14        23.4041   20.5806   67.7043 H           1 MOL       0.0643
     35 H15        23.8184   19.8946   64.9896 H           1 MOL       0.2100
     36 H16        25.8209   20.5760   67.9511 H           1 MOL       0.0584
     37 H17        25.3973   21.6651   66.6345 H           1 MOL       0.0584
     38 H18        25.9061   19.9851   65.1728 H           1 MOL       0.2095
@<TRIPOS>BOND
     1     4     1   1
     2     1     3  ar
     3     1     2  ar
     4     4    14   1
     5     4     5   2
     6     5     6   1
     7     6     8   1
     8     6     7   1
     9     8    13   1
    10     8     9   1
    11     9    10  am
    12    10    12   1
    13    10    11   2
    14    13    15   1
    15    13    14   1
    16    15    17   1
    17    15    16   1
    18    17    19   1
    19    17    18   1
    20    19    20   1
    21     5    21   1
    22     6    22   1
    23     7    23   1
    24     7    24   1
    25     7    25   1
    26     8    26   1
    27     9    27   1
    28    12    28   1
    29    12    29   1
    30    12    30   1
    31    13    31   1
    32    15    32   1
    33    16    33   1
    34    17    34   1
    35    18    35   1
    36    19    36   1
    37    19    37   1
    38    20    38   1
@<TRIPOS>SUBSTRUCTURE
     1  MOL      1

