@<TRIPOS>MOLECULE
1f8c_ligand_050
    38    38
SMALL
GAST_HUCK
****
This file was generated by PARSER (from files_GN.cpp)

@<TRIPOS>ATOM
      1 C1         26.4618   18.9590   70.0961 C.2         1 MOL       0.0810
      2 O1A        26.6840   18.4093   71.3234 O.co2       1 MOL      -0.5623
      3 O1B        27.4326   19.7662   69.6051 O.co2       1 MOL      -0.5623
      4 C2         25.2769   18.7669   69.3943 C.2         1 MOL       0.1116
      5 C3         24.4089   17.7805   69.7026 C.2         1 MOL      -0.0085
      6 C4         23.1700   17.5414   68.9742 C.3         1 MOL       0.0210
      7 N4         23.2549   16.2112   68.3423 N.4         1 MOL       0.2321
      8 C5         22.8058   18.6468   67.9296 C.3         1 MOL       0.1228
      9 N5         21.8102   19.5714   68.4232 N.am        1 MOL      -0.2741
     10 C10        21.8130   20.2712   69.5538 C.2         1 MOL       0.1735
     11 O10        22.7336   20.2204   70.3539 O.2         1 MOL      -0.3974
     12 C11        20.6715   21.1063   69.8490 C.3         1 MOL       0.0257
     13 C6         24.0643   19.3874   67.3631 C.3         1 MOL       0.1349
     14 O6         25.0354   19.6739   68.4037 O.3         1 MOL      -0.3186
     15 C7         24.7741   18.7074   66.1370 C.3         1 MOL       0.1156
     16 O7         25.9666   18.0269   66.5446 O.3         1 MOL      -0.3861
     17 C8         25.1567   19.7371   65.0276 C.3         1 MOL       0.1068
     18 O8         24.0237   20.5327   64.6491 O.3         1 MOL      -0.3869
     19 C9         25.7377   19.1041   63.7346 C.3         1 MOL       0.0727
     20 O9         24.8818   18.1107   63.1853 O.3         1 MOL      -0.3924
     21 H1         24.6056   17.1626   70.4670 H           1 MOL       0.0510
     22 H2         22.3588   17.4672   69.7042 H           1 MOL       0.0996
     23 H3         23.1005   15.4802   69.0439 H           1 MOL       0.2008
     24 H4         24.1765   16.0690   67.9172 H           1 MOL       0.2008
     25 H5         22.5408   16.1177   67.6189 H           1 MOL       0.2008
     26 H6         22.3068   18.1613   67.0970 H           1 MOL       0.0664
     27 H7         21.0222   19.6725   67.8646 H           1 MOL       0.1859
     28 H8         20.7855   21.6231   70.8038 H           1 MOL       0.0467
     29 H9         19.7728   20.5008   69.8948 H           1 MOL       0.0467
     30 H10        20.5490   21.8544   69.0651 H           1 MOL       0.0467
     31 H11        23.7133   20.3713   67.0261 H           1 MOL       0.0698
     32 H12        24.1100   17.9704   65.6828 H           1 MOL       0.0650
     33 H13        25.7103   17.0921   66.7334 H           1 MOL       0.2100
     34 H14        25.9051   20.4133   65.4349 H           1 MOL       0.0643
     35 H15        23.7003   20.1571   63.8041 H           1 MOL       0.2100
     36 H16        26.7132   18.6514   63.9412 H           1 MOL       0.0584
     37 H17        25.8882   19.8911   62.9881 H           1 MOL       0.0584
     38 H18        24.2201   18.5924   62.6339 H           1 MOL       0.2095
@<TRIPOS>BOND
     1     4     1   1
     2     1     3  ar
     3     1     2  ar
     4     4    14   1
     5     4     5   2
     6     5     6   1
     7     6     8   1
     8     6     7   1
     9     8    13   1
    10     8     9   1
    11     9    10  am
    12    10    12   1
    13    10    11   2
    14    13    15   1
    15    13    14   1
    16    15    17   1
    17    15    16   1
    18    17    19   1
    19    17    18   1
    20    19    20   1
    21     5    21   1
    22     6    22   1
    23     7    23   1
    24     7    24   1
    25     7    25   1
    26     8    26   1
    27     9    27   1
    28    12    28   1
    29    12    29   1
    30    12    30   1
    31    13    31   1
    32    15    32   1
    33    16    33   1
    34    17    34   1
    35    18    35   1
    36    19    36   1
    37    19    37   1
    38    20    38   1
@<TRIPOS>SUBSTRUCTURE
     1  MOL      1

