@<TRIPOS>MOLECULE
1f8c_ligand_073
    38    38
SMALL
GAST_HUCK
****
This file was generated by PARSER (from files_GN.cpp)

@<TRIPOS>ATOM
      1 C1         27.2539   14.7178   61.5514 C.2         1 MOL       0.0810
      2 O1A        27.3068   14.8879   60.2011 O.co2       1 MOL      -0.5623
      3 O1B        27.8190   13.5980   62.0742 O.co2       1 MOL      -0.5623
      4 C2         26.5968   15.6114   62.3625 C.2         1 MOL       0.1116
      5 C3         25.3761   16.0820   62.0337 C.2         1 MOL      -0.0085
      6 C4         24.6169   16.9203   62.9257 C.3         1 MOL       0.0210
      7 N4         23.7253   17.8041   62.1618 N.4         1 MOL       0.2321
      8 C5         25.5290   17.7897   63.8448 C.3         1 MOL       0.1228
      9 N5         24.7600   18.3302   64.9410 N.am        1 MOL      -0.2741
     10 C10        24.5149   19.6074   65.2423 C.2         1 MOL       0.1735
     11 O10        24.8510   20.5238   64.4959 O.2         1 MOL      -0.3974
     12 C11        23.8644   19.9124   66.4949 C.3         1 MOL       0.0257
     13 C6         26.6709   16.9015   64.4384 C.3         1 MOL       0.1349
     14 O6         27.2654   16.0264   63.4580 O.3         1 MOL      -0.3186
     15 C7         27.8028   17.7575   65.0969 C.3         1 MOL       0.1156
     16 O7         28.7848   18.0799   64.1051 O.3         1 MOL      -0.3861
     17 C8         28.5140   17.1312   66.3548 C.3         1 MOL       0.1068
     18 O8         28.4653   15.6981   66.3590 O.3         1 MOL      -0.3869
     19 C9         28.0270   17.6453   67.7401 C.3         1 MOL       0.0727
     20 O9         26.7026   17.2206   68.0787 O.3         1 MOL      -0.3924
     21 H1         24.9063   15.7107   61.2348 H           1 MOL       0.0510
     22 H2         23.9942   16.2673   63.5467 H           1 MOL       0.0996
     23 H3         22.9987   17.2458   61.7055 H           1 MOL       0.2008
     24 H4         24.2576   18.3123   61.4484 H           1 MOL       0.2008
     25 H5         23.2891   18.4739   62.7986 H           1 MOL       0.2008
     26 H6         25.9739   18.5905   63.2366 H           1 MOL       0.0664
     27 H7         24.4182   17.6736   65.5830 H           1 MOL       0.1859
     28 H8         23.7186   20.9821   66.6096 H           1 MOL       0.0467
     29 H9         24.4817   19.5591   67.3163 H           1 MOL       0.0467
     30 H10        22.8973   19.4198   66.5387 H           1 MOL       0.0467
     31 H11        26.2155   16.2576   65.1829 H           1 MOL       0.0698
     32 H12        27.4118   18.7253   65.4101 H           1 MOL       0.0650
     33 H13        29.1684   17.2121   63.8251 H           1 MOL       0.2100
     34 H14        29.5774   17.3909   66.2883 H           1 MOL       0.0643
     35 H15        27.5602   15.4647   66.6892 H           1 MOL       0.2100
     36 H16        28.0710   18.7455   67.7808 H           1 MOL       0.0584
     37 H17        28.7033   17.2594   68.5141 H           1 MOL       0.0584
     38 H18        26.1621   17.3989   67.2724 H           1 MOL       0.2095
@<TRIPOS>BOND
     1     4     1   1
     2     1     3  ar
     3     1     2  ar
     4     4    14   1
     5     4     5   2
     6     5     6   1
     7     6     8   1
     8     6     7   1
     9     8    13   1
    10     8     9   1
    11     9    10  am
    12    10    12   1
    13    10    11   2
    14    13    15   1
    15    13    14   1
    16    15    17   1
    17    15    16   1
    18    17    19   1
    19    17    18   1
    20    19    20   1
    21     5    21   1
    22     6    22   1
    23     7    23   1
    24     7    24   1
    25     7    25   1
    26     8    26   1
    27     9    27   1
    28    12    28   1
    29    12    29   1
    30    12    30   1
    31    13    31   1
    32    15    32   1
    33    16    33   1
    34    17    34   1
    35    18    35   1
    36    19    36   1
    37    19    37   1
    38    20    38   1
@<TRIPOS>SUBSTRUCTURE
     1  MOL      1

