@<TRIPOS>MOLECULE
1f8c_ligand_046
    38    38
SMALL
GAST_HUCK
****
This file was generated by PARSER (from files_GN.cpp)

@<TRIPOS>ATOM
      1 C1         24.4534   20.0483   65.4340 C.2         1 MOL       0.0810
      2 O1A        23.2480   19.5516   65.8151 O.co2       1 MOL      -0.5623
      3 O1B        24.4605   21.0577   64.5333 O.co2       1 MOL      -0.5623
      4 C2         25.6518   19.4392   65.7425 C.2         1 MOL       0.1116
      5 C3         25.9053   18.1399   65.5108 C.2         1 MOL      -0.0085
      6 C4         27.2431   17.6175   65.7608 C.3         1 MOL       0.0210
      7 N4         27.3508   17.2188   67.1725 N.4         1 MOL       0.2321
      8 C5         28.3474   18.6541   65.3697 C.3         1 MOL       0.1228
      9 N5         28.5506   18.6179   63.9413 N.am        1 MOL      -0.2741
     10 C10        29.7005   18.7965   63.3049 C.2         1 MOL       0.1735
     11 O10        30.7505   18.9730   63.9094 O.2         1 MOL      -0.3974
     12 C11        29.7118   18.8311   61.8599 C.3         1 MOL       0.0257
     13 C6         27.9382   20.1175   65.8141 C.3         1 MOL       0.1349
     14 O6         26.5884   20.2003   66.3376 O.3         1 MOL      -0.3186
     15 C7         28.9201   20.8121   66.8152 C.3         1 MOL       0.1156
     16 O7         30.1754   21.0148   66.1610 O.3         1 MOL      -0.3861
     17 C8         29.1094   20.1003   68.1935 C.3         1 MOL       0.1068
     18 O8         28.0209   20.4174   69.0626 O.3         1 MOL      -0.3869
     19 C9         30.4154   20.4903   68.9342 C.3         1 MOL       0.0727
     20 O9         30.4661   19.8519   70.2089 O.3         1 MOL      -0.3924
     21 H1         25.2361   17.5619   65.0461 H           1 MOL       0.0510
     22 H2         27.3899   16.6982   65.1798 H           1 MOL       0.0996
     23 H3         26.7167   16.4374   67.3491 H           1 MOL       0.2008
     24 H4         27.1042   18.0007   67.7776 H           1 MOL       0.2008
     25 H5         28.3097   16.9257   67.3730 H           1 MOL       0.2008
     26 H6         29.2706   18.3428   65.8636 H           1 MOL       0.0664
     27 H7         27.7562   18.5274   63.3927 H           1 MOL       0.1859
     28 H8         30.7194   19.0013   61.4728 H           1 MOL       0.0467
     29 H9         29.0658   19.6341   61.5009 H           1 MOL       0.0467
     30 H10        29.3499   17.8803   61.4672 H           1 MOL       0.0467
     31 H11        27.9240   20.7610   64.9204 H           1 MOL       0.0698
     32 H12        28.5292   21.8156   67.0125 H           1 MOL       0.0650
     33 H13        30.6180   20.1425   66.1456 H           1 MOL       0.2100
     34 H14        29.1320   19.0188   68.0539 H           1 MOL       0.0643
     35 H15        27.2161   20.0868   68.6160 H           1 MOL       0.2100
     36 H16        30.4652   21.5712   69.0783 H           1 MOL       0.0584
     37 H17        31.2906   20.1666   68.3639 H           1 MOL       0.0584
     38 H18        31.3062   20.1444   70.6198 H           1 MOL       0.2095
@<TRIPOS>BOND
     1     4     1   1
     2     1     3  ar
     3     1     2  ar
     4     4    14   1
     5     4     5   2
     6     5     6   1
     7     6     8   1
     8     6     7   1
     9     8    13   1
    10     8     9   1
    11     9    10  am
    12    10    12   1
    13    10    11   2
    14    13    15   1
    15    13    14   1
    16    15    17   1
    17    15    16   1
    18    17    19   1
    19    17    18   1
    20    19    20   1
    21     5    21   1
    22     6    22   1
    23     7    23   1
    24     7    24   1
    25     7    25   1
    26     8    26   1
    27     9    27   1
    28    12    28   1
    29    12    29   1
    30    12    30   1
    31    13    31   1
    32    15    32   1
    33    16    33   1
    34    17    34   1
    35    18    35   1
    36    19    36   1
    37    19    37   1
    38    20    38   1
@<TRIPOS>SUBSTRUCTURE
     1  MOL      1

