@<TRIPOS>MOLECULE
1f8c_ligand_055
    38    38
SMALL
GAST_HUCK
****
This file was generated by PARSER (from files_GN.cpp)

@<TRIPOS>ATOM
      1 C1         28.4343   17.1050   66.2863 C.2         1 MOL       0.0810
      2 O1A        29.2935   17.7119   67.1537 O.co2       1 MOL      -0.5623
      3 O1B        28.8469   15.9619   65.6884 O.co2       1 MOL      -0.5623
      4 C2         27.1596   17.6270   66.1064 C.2         1 MOL       0.1116
      5 C3         26.4143   17.3234   65.0258 C.2         1 MOL      -0.0085
      6 C4         25.0804   17.8682   64.7987 C.3         1 MOL       0.0210
      7 N4         25.0830   18.6768   63.5673 N.4         1 MOL       0.2321
      8 C5         24.4957   18.6372   66.0349 C.3         1 MOL       0.1228
      9 N5         23.8044   17.6795   66.8617 N.am        1 MOL      -0.2741
     10 C10        22.8134   17.9190   67.7051 C.2         1 MOL       0.1735
     11 O10        22.3840   19.0471   67.8912 O.2         1 MOL      -0.3974
     12 C11        22.2179   16.7958   68.3947 C.3         1 MOL       0.0257
     13 C6         25.6207   19.3317   66.8783 C.3         1 MOL       0.1349
     14 O6         26.6915   18.3956   67.1237 O.3         1 MOL      -0.3186
     15 C7         26.1703   20.7017   66.3575 C.3         1 MOL       0.1156
     16 O7         26.7520   20.5717   65.0656 O.3         1 MOL      -0.3861
     17 C8         27.1741   21.3876   67.3588 C.3         1 MOL       0.1068
     18 O8         26.4805   22.3372   68.1726 O.3         1 MOL      -0.3869
     19 C9         28.4414   22.0480   66.7370 C.3         1 MOL       0.0727
     20 O9         28.1466   23.0942   65.8067 O.3         1 MOL      -0.3924
     21 H1         26.8024   16.7582   64.2967 H           1 MOL       0.0510
     22 H2         24.4287   17.0212   64.5730 H           1 MOL       0.0996
     23 H3         25.3268   18.0726   62.7764 H           1 MOL       0.2008
     24 H4         25.7739   19.4221   63.6356 H           1 MOL       0.2008
     25 H5         24.1606   19.0886   63.3952 H           1 MOL       0.2008
     26 H6         23.7808   19.3877   65.6845 H           1 MOL       0.0664
     27 H7         24.0725   16.7541   66.7544 H           1 MOL       0.1859
     28 H8         21.3980   17.1149   69.0383 H           1 MOL       0.0467
     29 H9         22.9715   16.3050   69.0096 H           1 MOL       0.0467
     30 H10        21.8309   16.0806   67.6678 H           1 MOL       0.0467
     31 H11        25.2085   19.5473   67.8681 H           1 MOL       0.0698
     32 H12        25.3127   21.3715   66.2244 H           1 MOL       0.0650
     33 H13        27.5062   19.9516   65.1740 H           1 MOL       0.2100
     34 H14        27.5514   20.6390   68.0596 H           1 MOL       0.0643
     35 H15        26.2282   23.0711   67.5718 H           1 MOL       0.2100
     36 H16        29.0220   21.2841   66.2097 H           1 MOL       0.0584
     37 H17        29.0663   22.4631   67.5349 H           1 MOL       0.0584
     38 H18        27.7543   23.8120   66.3443 H           1 MOL       0.2095
@<TRIPOS>BOND
     1     4     1   1
     2     1     3  ar
     3     1     2  ar
     4     4    14   1
     5     4     5   2
     6     5     6   1
     7     6     8   1
     8     6     7   1
     9     8    13   1
    10     8     9   1
    11     9    10  am
    12    10    12   1
    13    10    11   2
    14    13    15   1
    15    13    14   1
    16    15    17   1
    17    15    16   1
    18    17    19   1
    19    17    18   1
    20    19    20   1
    21     5    21   1
    22     6    22   1
    23     7    23   1
    24     7    24   1
    25     7    25   1
    26     8    26   1
    27     9    27   1
    28    12    28   1
    29    12    29   1
    30    12    30   1
    31    13    31   1
    32    15    32   1
    33    16    33   1
    34    17    34   1
    35    18    35   1
    36    19    36   1
    37    19    37   1
    38    20    38   1
@<TRIPOS>SUBSTRUCTURE
     1  MOL      1

