@<TRIPOS>MOLECULE
1f8c_ligand_001
    38    38
SMALL
GAST_HUCK
****
This file was generated by PARSER (from files_GN.cpp)

@<TRIPOS>ATOM
      1 C1         24.1497   19.7258   64.9098 C.2         1 MOL       0.0810
      2 O1A        24.6064   20.9265   64.4675 O.co2       1 MOL      -0.5623
      3 O1B        22.9113   19.6951   65.4648 O.co2       1 MOL      -0.5623
      4 C2         24.8544   18.5587   64.6717 C.2         1 MOL       0.1116
      5 C3         26.2005   18.4580   64.7584 C.2         1 MOL      -0.0085
      6 C4         26.8333   17.1978   64.4209 C.3         1 MOL       0.0210
      7 N4         28.2944   17.3416   64.3355 N.4         1 MOL       0.2321
      8 C5         26.2210   16.6623   63.0872 C.3         1 MOL       0.1228
      9 N5         26.7054   15.3371   62.8137 N.am        1 MOL      -0.2741
     10 C10        27.2350   14.8887   61.6817 C.2         1 MOL       0.1735
     11 O10        27.3479   15.6051   60.6856 O.2         1 MOL      -0.3974
     12 C11        27.6192   13.5016   61.5713 C.3         1 MOL       0.0257
     13 C6         24.6406   16.6946   63.1858 C.3         1 MOL       0.1349
     14 O6         24.1549   17.4532   64.3326 O.3         1 MOL      -0.3186
     15 C7         23.9302   17.2431   61.8997 C.3         1 MOL       0.1156
     16 O7         22.5841   17.6154   62.2024 O.3         1 MOL      -0.3861
     17 C8         23.9389   16.3331   60.6308 C.3         1 MOL       0.1068
     18 O8         23.1198   16.9520   59.6349 O.3         1 MOL      -0.3869
     19 C9         23.4396   14.8720   60.8189 C.3         1 MOL       0.0727
     20 O9         24.5199   13.9843   61.1037 O.3         1 MOL      -0.3924
     21 H1         26.7507   19.2490   64.9997 H           1 MOL       0.0510
     22 H2         26.6231   16.4803   65.2193 H           1 MOL       0.0996
     23 H3         28.6569   17.6643   65.2340 H           1 MOL       0.2008
     24 H4         28.5372   18.0227   63.6127 H           1 MOL       0.2008
     25 H5         28.7161   16.4400   64.1070 H           1 MOL       0.2008
     26 H6         26.5408   17.3514   62.2967 H           1 MOL       0.0664
     27 H7         26.6160   14.6913   63.5367 H           1 MOL       0.1859
     28 H8         27.7107   13.1869   60.5279 H           1 MOL       0.0467
     29 H9         26.8766   12.8613   62.0576 H           1 MOL       0.0467
     30 H10        28.5851   13.3591   62.0596 H           1 MOL       0.0467
     31 H11        24.2716   15.6807   63.3640 H           1 MOL       0.0698
     32 H12        24.4258   18.1793   61.6311 H           1 MOL       0.0650
     33 H13        22.1787   16.8477   62.6506 H           1 MOL       0.2100
     34 H14        24.9485   16.3053   60.2194 H           1 MOL       0.0643
     35 H15        23.5541   17.8072   59.4393 H           1 MOL       0.2100
     36 H16        22.9647   14.5188   59.8994 H           1 MOL       0.0584
     37 H17        22.7118   14.8067   61.6316 H           1 MOL       0.0584
     38 H18        24.1798   13.0960   60.8714 H           1 MOL       0.2095
@<TRIPOS>BOND
     1     4     1   1
     2     1     3  ar
     3     1     2  ar
     4     4    14   1
     5     4     5   2
     6     5     6   1
     7     6     8   1
     8     6     7   1
     9     8    13   1
    10     8     9   1
    11     9    10  am
    12    10    12   1
    13    10    11   2
    14    13    15   1
    15    13    14   1
    16    15    17   1
    17    15    16   1
    18    17    19   1
    19    17    18   1
    20    19    20   1
    21     5    21   1
    22     6    22   1
    23     7    23   1
    24     7    24   1
    25     7    25   1
    26     8    26   1
    27     9    27   1
    28    12    28   1
    29    12    29   1
    30    12    30   1
    31    13    31   1
    32    15    32   1
    33    16    33   1
    34    17    34   1
    35    18    35   1
    36    19    36   1
    37    19    37   1
    38    20    38   1
@<TRIPOS>SUBSTRUCTURE
     1  MOL      1

