@<TRIPOS>MOLECULE
1f8c_ligand_040
    38    38
SMALL
GAST_HUCK
****
This file was generated by PARSER (from files_GN.cpp)

@<TRIPOS>ATOM
      1 C1         25.4414   19.8691   65.0345 C.2         1 MOL       0.0810
      2 O1A        24.9174   19.0404   65.9734 O.co2       1 MOL      -0.5623
      3 O1B        24.7020   20.9499   64.6866 O.co2       1 MOL      -0.5623
      4 C2         26.7172   19.6901   64.5232 C.2         1 MOL       0.1116
      5 C3         27.2742   18.4638   64.3983 C.2         1 MOL      -0.0085
      6 C4         28.5893   18.2577   63.8090 C.3         1 MOL       0.0210
      7 N4         29.5011   17.8329   64.8834 N.4         1 MOL       0.2321
      8 C5         29.1228   19.5080   63.0288 C.3         1 MOL       0.1228
      9 N5         28.6633   19.7045   61.6778 N.am        1 MOL      -0.2741
     10 C10        27.7843   19.0617   60.9171 C.2         1 MOL       0.1735
     11 O10        27.1870   18.0469   61.2750 O.2         1 MOL      -0.3974
     12 C11        27.5297   19.5660   59.5908 C.3         1 MOL       0.0257
     13 C6         28.7798   20.8189   63.8309 C.3         1 MOL       0.1349
     14 O6         27.3565   20.8096   64.1144 O.3         1 MOL      -0.3186
     15 C7         29.7243   21.2184   65.0378 C.3         1 MOL       0.1156
     16 O7         30.8739   20.3801   65.1163 O.3         1 MOL      -0.3861
     17 C8         29.1211   21.3628   66.4700 C.3         1 MOL       0.1068
     18 O8         28.4298   20.1691   66.8383 O.3         1 MOL      -0.3869
     19 C9         28.2098   22.6026   66.6861 C.3         1 MOL       0.0727
     20 O9         28.6789   23.7338   65.9626 O.3         1 MOL      -0.3924
     21 H1         26.7818   17.6552   64.7137 H           1 MOL       0.0510
     22 H2         28.5542   17.4066   63.1315 H           1 MOL       0.0996
     23 H3         29.1220   16.9926   65.3347 H           1 MOL       0.2008
     24 H4         29.5932   18.5724   65.5800 H           1 MOL       0.2008
     25 H5         30.4209   17.6194   64.4841 H           1 MOL       0.2008
     26 H6         30.2074   19.4087   62.9292 H           1 MOL       0.0664
     27 H7         29.0309   20.5007   61.2551 H           1 MOL       0.1859
     28 H8         26.7988   18.9510   59.0573 H           1 MOL       0.0467
     29 H9         28.4602   19.5696   59.0123 H           1 MOL       0.0467
     30 H10        27.1447   20.5887   59.6490 H           1 MOL       0.0467
     31 H11        28.8830   21.6532   63.1270 H           1 MOL       0.0698
     32 H12        30.1512   22.1983   64.7989 H           1 MOL       0.0650
     33 H13        31.5605   20.8922   65.5946 H           1 MOL       0.2100
     34 H14        29.9517   21.4663   67.1750 H           1 MOL       0.0643
     35 H15        28.2493   20.2549   67.8036 H           1 MOL       0.2100
     36 H16        28.1877   22.8603   67.7467 H           1 MOL       0.0584
     37 H17        27.1928   22.3972   66.3683 H           1 MOL       0.0584
     38 H18        29.3854   24.1406   66.5153 H           1 MOL       0.2095
@<TRIPOS>BOND
     1     4     1   1
     2     1     3  ar
     3     1     2  ar
     4     4    14   1
     5     4     5   2
     6     5     6   1
     7     6     8   1
     8     6     7   1
     9     8    13   1
    10     8     9   1
    11     9    10  am
    12    10    12   1
    13    10    11   2
    14    13    15   1
    15    13    14   1
    16    15    17   1
    17    15    16   1
    18    17    19   1
    19    17    18   1
    20    19    20   1
    21     5    21   1
    22     6    22   1
    23     7    23   1
    24     7    24   1
    25     7    25   1
    26     8    26   1
    27     9    27   1
    28    12    28   1
    29    12    29   1
    30    12    30   1
    31    13    31   1
    32    15    32   1
    33    16    33   1
    34    17    34   1
    35    18    35   1
    36    19    36   1
    37    19    37   1
    38    20    38   1
@<TRIPOS>SUBSTRUCTURE
     1  MOL      1

