@<TRIPOS>MOLECULE
1f8c_ligand_033
    38    38
SMALL
GAST_HUCK
****
This file was generated by PARSER (from files_GN.cpp)

@<TRIPOS>ATOM
      1 C1         24.9545   19.6363   64.4189 C.2         1 MOL       0.0810
      2 O1A        24.2563   18.7199   65.1171 O.co2       1 MOL      -0.5623
      3 O1B        24.4727   20.9059   64.4159 O.co2       1 MOL      -0.5623
      4 C2         26.0894   19.3113   63.6850 C.2         1 MOL       0.1116
      5 C3         26.7584   18.1626   63.8697 C.2         1 MOL      -0.0085
      6 C4         27.9622   17.8072   63.1256 C.3         1 MOL       0.0210
      7 N4         29.1170   17.7787   64.0348 N.4         1 MOL       0.2321
      8 C5         28.2202   18.7318   61.8938 C.3         1 MOL       0.1228
      9 N5         27.4196   18.2479   60.7960 N.am        1 MOL      -0.2741
     10 C10        27.7080   18.3324   59.5024 C.2         1 MOL       0.1735
     11 O10        28.6701   18.9729   59.0990 O.2         1 MOL      -0.3974
     12 C11        26.8925   17.6002   58.5590 C.3         1 MOL       0.0257
     13 C6         27.8392   20.2116   62.2308 C.3         1 MOL       0.1349
     14 O6         26.5083   20.2559   62.7980 O.3         1 MOL      -0.3186
     15 C7         28.8947   21.0763   63.0278 C.3         1 MOL       0.1156
     16 O7         30.2084   20.7623   62.5691 O.3         1 MOL      -0.3861
     17 C8         28.7981   21.1152   64.6018 C.3         1 MOL       0.1068
     18 O8         28.4405   22.4369   65.0098 O.3         1 MOL      -0.3869
     19 C9         30.0281   20.6490   65.4441 C.3         1 MOL       0.0727
     20 O9         29.7255   19.4767   66.2040 O.3         1 MOL      -0.3924
     21 H1         26.4685   17.5212   64.5747 H           1 MOL       0.0510
     22 H2         27.8418   16.7784   62.7749 H           1 MOL       0.0996
     23 H3         28.9013   17.1910   64.8438 H           1 MOL       0.2008
     24 H4         29.3346   18.7187   64.3546 H           1 MOL       0.2008
     25 H5         29.9295   17.3961   63.5479 H           1 MOL       0.2008
     26 H6         29.2732   18.6579   61.6187 H           1 MOL       0.0664
     27 H7         26.6243   17.7425   61.0285 H           1 MOL       0.1859
     28 H8         27.2212   17.7658   57.5289 H           1 MOL       0.0467
     29 H9         25.8500   17.9117   58.6408 H           1 MOL       0.0467
     30 H10        26.9573   16.5301   58.7716 H           1 MOL       0.0467
     31 H11        27.7362   20.7210   61.2640 H           1 MOL       0.0698
     32 H12        28.7541   22.1080   62.6966 H           1 MOL       0.0650
     33 H13        30.2148   21.0113   61.6254 H           1 MOL       0.2100
     34 H14        27.9709   20.5057   64.9267 H           1 MOL       0.0643
     35 H15        28.1293   22.3636   65.9337 H           1 MOL       0.2100
     36 H16        30.3292   21.4224   66.1467 H           1 MOL       0.0584
     37 H17        30.8956   20.4262   64.8305 H           1 MOL       0.0584
     38 H18        30.5354   19.2805   66.7097 H           1 MOL       0.2095
@<TRIPOS>BOND
     1     4     1   1
     2     1     3  ar
     3     1     2  ar
     4     4    14   1
     5     4     5   2
     6     5     6   1
     7     6     8   1
     8     6     7   1
     9     8    13   1
    10     8     9   1
    11     9    10  am
    12    10    12   1
    13    10    11   2
    14    13    15   1
    15    13    14   1
    16    15    17   1
    17    15    16   1
    18    17    19   1
    19    17    18   1
    20    19    20   1
    21     5    21   1
    22     6    22   1
    23     7    23   1
    24     7    24   1
    25     7    25   1
    26     8    26   1
    27     9    27   1
    28    12    28   1
    29    12    29   1
    30    12    30   1
    31    13    31   1
    32    15    32   1
    33    16    33   1
    34    17    34   1
    35    18    35   1
    36    19    36   1
    37    19    37   1
    38    20    38   1
@<TRIPOS>SUBSTRUCTURE
     1  MOL      1

