@<TRIPOS>MOLECULE
1f8c_ligand_076
    38    38
SMALL
GAST_HUCK
****
This file was generated by PARSER (from files_GN.cpp)

@<TRIPOS>ATOM
      1 C1         27.9078   13.6599   60.8227 C.2         1 MOL       0.0810
      2 O1A        28.8113   13.5166   59.8266 O.co2       1 MOL      -0.5623
      3 O1B        28.2860   13.3027   62.0707 O.co2       1 MOL      -0.5623
      4 C2         26.7224   14.3282   60.5968 C.2         1 MOL       0.1116
      5 C3         25.6322   14.1853   61.3775 C.2         1 MOL      -0.0085
      6 C4         24.4411   14.9696   61.1056 C.3         1 MOL       0.0210
      7 N4         23.6635   14.2316   60.0930 N.4         1 MOL       0.2321
      8 C5         24.7903   16.4260   60.6156 C.3         1 MOL       0.1228
      9 N5         24.5875   17.4488   61.6051 N.am        1 MOL      -0.2741
     10 C10        24.9077   17.4183   62.8930 C.2         1 MOL       0.1735
     11 O10        25.3761   16.4154   63.4238 O.2         1 MOL      -0.3974
     12 C11        24.7184   18.6075   63.6920 C.3         1 MOL       0.0257
     13 C6         26.2368   16.5429   59.9831 C.3         1 MOL       0.1349
     14 O6         26.6953   15.2224   59.5862 O.3         1 MOL      -0.3186
     15 C7         26.3374   17.5613   58.7855 C.3         1 MOL       0.1156
     16 O7         26.8273   16.8915   57.6147 O.3         1 MOL      -0.3861
     17 C8         27.2112   18.8352   59.0413 C.3         1 MOL       0.1068
     18 O8         28.5726   18.5373   58.7333 O.3         1 MOL      -0.3869
     19 C9         27.1095   19.4608   60.4698 C.3         1 MOL       0.0727
     20 O9         26.6612   20.8117   60.4561 O.3         1 MOL      -0.3924
     21 H1         25.6402   13.5732   62.1637 H           1 MOL       0.0510
     22 H2         23.8196   15.0060   62.0037 H           1 MOL       0.0996
     23 H3         23.6043   13.2434   60.3432 H           1 MOL       0.2008
     24 H4         24.1233   14.3122   59.1810 H           1 MOL       0.2008
     25 H5         22.7202   14.6205   60.0265 H           1 MOL       0.2008
     26 H6         24.0580   16.6617   59.8369 H           1 MOL       0.0664
     27 H7         24.2731   18.2939   61.2610 H           1 MOL       0.1859
     28 H8         25.0143   18.4427   64.7313 H           1 MOL       0.0467
     29 H9         23.6682   18.8998   63.6786 H           1 MOL       0.0467
     30 H10        25.3202   19.4241   63.2867 H           1 MOL       0.0467
     31 H11        26.9320   16.8777   60.7622 H           1 MOL       0.0698
     32 H12        25.3418   17.9224   58.5220 H           1 MOL       0.0650
     33 H13        26.3284   17.2443   56.8503 H           1 MOL       0.2100
     34 H14        26.9092   19.5964   58.3118 H           1 MOL       0.0643
     35 H15        28.8265   19.2373   58.0929 H           1 MOL       0.2100
     36 H16        28.0768   19.4342   60.9796 H           1 MOL       0.0584
     37 H17        26.4061   18.9055   61.0850 H           1 MOL       0.0584
     38 H18        27.4725   21.3633   60.4139 H           1 MOL       0.2095
@<TRIPOS>BOND
     1     4     1   1
     2     1     3  ar
     3     1     2  ar
     4     4    14   1
     5     4     5   2
     6     5     6   1
     7     6     8   1
     8     6     7   1
     9     8    13   1
    10     8     9   1
    11     9    10  am
    12    10    12   1
    13    10    11   2
    14    13    15   1
    15    13    14   1
    16    15    17   1
    17    15    16   1
    18    17    19   1
    19    17    18   1
    20    19    20   1
    21     5    21   1
    22     6    22   1
    23     7    23   1
    24     7    24   1
    25     7    25   1
    26     8    26   1
    27     9    27   1
    28    12    28   1
    29    12    29   1
    30    12    30   1
    31    13    31   1
    32    15    32   1
    33    16    33   1
    34    17    34   1
    35    18    35   1
    36    19    36   1
    37    19    37   1
    38    20    38   1
@<TRIPOS>SUBSTRUCTURE
     1  MOL      1

