@<TRIPOS>MOLECULE
1f8c_ligand_036
    38    38
SMALL
GAST_HUCK
****
This file was generated by PARSER (from files_GN.cpp)

@<TRIPOS>ATOM
      1 C1         27.2864   20.8661   60.5457 C.2         1 MOL       0.0810
      2 O1A        26.9697   21.7321   59.5397 O.co2       1 MOL      -0.5623
      3 O1B        27.8436   21.3890   61.6773 O.co2       1 MOL      -0.5623
      4 C2         27.0878   19.5441   60.4625 C.2         1 MOL       0.1116
      5 C3         27.4788   18.7963   59.4048 C.2         1 MOL      -0.0085
      6 C4         27.1318   17.3945   59.3194 C.3         1 MOL       0.0210
      7 N4         25.8191   17.3174   58.6332 N.4         1 MOL       0.2321
      8 C5         27.1226   16.6993   60.7255 C.3         1 MOL       0.1228
      9 N5         28.4374   16.2173   61.0927 N.am        1 MOL      -0.2741
     10 C10        29.4851   16.8773   61.5523 C.2         1 MOL       0.1735
     11 O10        29.4450   18.0765   61.8168 O.2         1 MOL      -0.3974
     12 C11        30.6967   16.1485   61.8196 C.3         1 MOL       0.0257
     13 C6         26.4822   17.6169   61.8361 C.3         1 MOL       0.1349
     14 O6         26.3182   18.9999   61.4420 O.3         1 MOL      -0.3186
     15 C7         25.0925   17.1138   62.3491 C.3         1 MOL       0.1156
     16 O7         24.1832   17.0482   61.2483 O.3         1 MOL      -0.3861
     17 C8         24.4720   18.0302   63.4842 C.3         1 MOL       0.1068
     18 O8         25.0810   17.7050   64.7498 O.3         1 MOL      -0.3869
     19 C9         22.9338   17.9724   63.6426 C.3         1 MOL       0.0727
     20 O9         22.2589   17.8234   62.3892 O.3         1 MOL      -0.3924
     21 H1         28.0678   19.2100   58.7027 H           1 MOL       0.0510
     22 H2         27.8410   16.8904   58.6787 H           1 MOL       0.0996
     23 H3         25.9314   17.6379   57.6753 H           1 MOL       0.2008
     24 H4         25.1570   17.9097   59.1165 H           1 MOL       0.2008
     25 H5         25.4811   16.3588   58.6270 H           1 MOL       0.2008
     26 H6         26.5214   15.7985   60.6289 H           1 MOL       0.0664
     27 H7         28.5664   15.2585   60.9669 H           1 MOL       0.1859
     28 H8         31.4463   16.7695   62.3344 H           1 MOL       0.0467
     29 H9         31.1309   15.8041   60.8818 H           1 MOL       0.0467
     30 H10        30.4872   15.2858   62.4579 H           1 MOL       0.0467
     31 H11        27.1306   17.6318   62.6998 H           1 MOL       0.0698
     32 H12        25.1775   16.1237   62.7532 H           1 MOL       0.0650
     33 H13        24.1083   17.9748   60.9265 H           1 MOL       0.2100
     34 H14        24.7314   19.0801   63.2652 H           1 MOL       0.0643
     35 H15        24.5913   16.9020   65.0474 H           1 MOL       0.2100
     36 H16        22.5869   18.9502   64.0321 H           1 MOL       0.0584
     37 H17        22.6183   17.1811   64.3531 H           1 MOL       0.0584
     38 H18        21.4637   17.2698   62.6180 H           1 MOL       0.2095
@<TRIPOS>BOND
     1     4     1   1
     2     1     3  ar
     3     1     2  ar
     4     4    14   1
     5     4     5   2
     6     5     6   1
     7     6     8   1
     8     6     7   1
     9     8    13   1
    10     8     9   1
    11     9    10  am
    12    10    12   1
    13    10    11   2
    14    13    15   1
    15    13    14   1
    16    15    17   1
    17    15    16   1
    18    17    19   1
    19    17    18   1
    20    19    20   1
    21     5    21   1
    22     6    22   1
    23     7    23   1
    24     7    24   1
    25     7    25   1
    26     8    26   1
    27     9    27   1
    28    12    28   1
    29    12    29   1
    30    12    30   1
    31    13    31   1
    32    15    32   1
    33    16    33   1
    34    17    34   1
    35    18    35   1
    36    19    36   1
    37    19    37   1
    38    20    38   1
@<TRIPOS>SUBSTRUCTURE
     1  MOL      1

