@<TRIPOS>MOLECULE
1f8c_ligand_020
    38    38
SMALL
GAST_HUCK
****
This file was generated by PARSER (from files_GN.cpp)

@<TRIPOS>ATOM
      1 C1         28.5403   17.8041   60.9039 C.2         1 MOL       0.0810
      2 O1A        28.6129   18.6812   59.8644 O.co2       1 MOL      -0.5623
      3 O1B        29.4337   17.9348   61.9197 O.co2       1 MOL      -0.5623
      4 C2         27.4937   16.9047   60.9810 C.2         1 MOL       0.1116
      5 C3         27.5713   15.6669   60.4507 C.2         1 MOL      -0.0085
      6 C4         26.4852   14.7013   60.5970 C.3         1 MOL       0.0210
      7 N4         26.1969   14.0152   59.3267 N.4         1 MOL       0.2321
      8 C5         25.1658   15.3247   61.1603 C.3         1 MOL       0.1228
      9 N5         24.3333   14.2849   61.7005 N.am        1 MOL      -0.2741
     10 C10        23.1985   13.8280   61.1861 C.2         1 MOL       0.1735
     11 O10        22.7375   14.2524   60.1341 O.2         1 MOL      -0.3974
     12 C11        22.4807   12.8133   61.9136 C.3         1 MOL       0.0257
     13 C6         25.5310   16.3887   62.2394 C.3         1 MOL       0.1349
     14 O6         26.3684   17.3629   61.5716 O.3         1 MOL      -0.3186
     15 C7         24.2962   17.0802   62.9044 C.3         1 MOL       0.1156
     16 O7         23.5503   17.8355   61.9520 O.3         1 MOL      -0.3861
     17 C8         24.6300   17.9040   64.1917 C.3         1 MOL       0.1068
     18 O8         23.4947   17.8867   65.0674 O.3         1 MOL      -0.3869
     19 C9         25.0765   19.3810   64.0030 C.3         1 MOL       0.0727
     20 O9         24.0712   20.3285   64.3569 O.3         1 MOL      -0.3924
     21 H1         28.4148   15.3514   60.0317 H           1 MOL       0.0510
     22 H2         26.8482   13.9424   61.2961 H           1 MOL       0.0996
     23 H3         27.0636   13.6556   58.9224 H           1 MOL       0.2008
     24 H4         25.7507   14.6581   58.6688 H           1 MOL       0.2008
     25 H5         25.5611   13.2334   59.5069 H           1 MOL       0.2008
     26 H6         24.6599   15.8525   60.3415 H           1 MOL       0.0664
     27 H7         24.6298   13.8697   62.5293 H           1 MOL       0.1859
     28 H8         21.5295   12.5681   61.4335 H           1 MOL       0.0467
     29 H9         22.2802   13.1884   62.9206 H           1 MOL       0.0467
     30 H10        23.0816   11.9031   61.9800 H           1 MOL       0.0467
     31 H11        26.1092   15.8972   63.0330 H           1 MOL       0.0698
     32 H12        23.6343   16.2750   63.2290 H           1 MOL       0.0650
     33 H13        24.1898   18.1987   61.3066 H           1 MOL       0.2100
     34 H14        25.4296   17.3851   64.7300 H           1 MOL       0.0643
     35 H15        23.4935   16.9863   65.4629 H           1 MOL       0.2100
     36 H16        25.3819   19.5654   62.9727 H           1 MOL       0.0584
     37 H17        25.9346   19.5728   64.6506 H           1 MOL       0.0584
     38 H18        23.4402   20.3078   63.6178 H           1 MOL       0.2095
@<TRIPOS>BOND
     1     4     1   1
     2     1     3  ar
     3     1     2  ar
     4     4    14   1
     5     4     5   2
     6     5     6   1
     7     6     8   1
     8     6     7   1
     9     8    13   1
    10     8     9   1
    11     9    10  am
    12    10    12   1
    13    10    11   2
    14    13    15   1
    15    13    14   1
    16    15    17   1
    17    15    16   1
    18    17    19   1
    19    17    18   1
    20    19    20   1
    21     5    21   1
    22     6    22   1
    23     7    23   1
    24     7    24   1
    25     7    25   1
    26     8    26   1
    27     9    27   1
    28    12    28   1
    29    12    29   1
    30    12    30   1
    31    13    31   1
    32    15    32   1
    33    16    33   1
    34    17    34   1
    35    18    35   1
    36    19    36   1
    37    19    37   1
    38    20    38   1
@<TRIPOS>SUBSTRUCTURE
     1  MOL      1

