@<TRIPOS>MOLECULE
1f8c_ligand_084
    38    38
SMALL
GAST_HUCK
****
This file was generated by PARSER (from files_GN.cpp)

@<TRIPOS>ATOM
      1 C1         29.0935   21.8209   66.3004 C.2         1 MOL       0.0810
      2 O1A        28.7223   22.7635   65.3960 O.co2       1 MOL      -0.5623
      3 O1B        29.6443   22.2297   67.4716 O.co2       1 MOL      -0.5623
      4 C2         29.0483   20.4815   65.9698 C.2         1 MOL       0.1116
      5 C3         30.1633   19.7257   65.8930 C.2         1 MOL      -0.0085
      6 C4         30.0417   18.3727   65.3997 C.3         1 MOL       0.0210
      7 N4         29.8483   18.4173   63.9438 N.4         1 MOL       0.2321
      8 C5         28.8365   17.6508   66.0820 C.3         1 MOL       0.1228
      9 N5         29.2912   17.1709   67.3581 N.am        1 MOL      -0.2741
     10 C10        29.7354   15.9540   67.6385 C.2         1 MOL       0.1735
     11 O10        29.7351   15.0446   66.8184 O.2         1 MOL      -0.3974
     12 C11        30.3214   15.6993   68.9380 C.3         1 MOL       0.0257
     13 C6         27.6048   18.6216   66.2660 C.3         1 MOL       0.1349
     14 O6         27.8529   19.9276   65.6651 O.3         1 MOL      -0.3186
     15 C7         26.2683   18.0496   65.6941 C.3         1 MOL       0.1156
     16 O7         26.1998   18.3031   64.2889 O.3         1 MOL      -0.3861
     17 C8         24.9734   18.5431   66.4142 C.3         1 MOL       0.1068
     18 O8         23.8497   17.7709   65.9766 O.3         1 MOL      -0.3869
     19 C9         24.6417   20.0530   66.2157 C.3         1 MOL       0.0727
     20 O9         23.2404   20.2733   66.4115 O.3         1 MOL      -0.3924
     21 H1         31.0564   20.0872   66.1451 H           1 MOL       0.0510
     22 H2         30.9792   17.8318   65.5723 H           1 MOL       0.0996
     23 H3         30.6247   18.9199   63.5028 H           1 MOL       0.2008
     24 H4         28.9745   18.9066   63.7293 H           1 MOL       0.2008
     25 H5         29.8040   17.4738   63.5652 H           1 MOL       0.2008
     26 H6         28.5592   16.7983   65.4603 H           1 MOL       0.0664
     27 H7         29.3901   17.8275   68.0768 H           1 MOL       0.1859
     28 H8         30.5831   14.6399   69.0711 H           1 MOL       0.0467
     29 H9         29.6195   15.9844   69.7314 H           1 MOL       0.0467
     30 H10        31.2403   16.2945   69.0553 H           1 MOL       0.0467
     31 H11        27.4502   18.7957   67.3356 H           1 MOL       0.0698
     32 H12        26.2919   16.9559   65.8275 H           1 MOL       0.0650
     33 H13        25.4810   17.7251   63.9629 H           1 MOL       0.2100
     34 H14        25.0865   18.3619   67.4931 H           1 MOL       0.0643
     35 H15        24.0505   16.8366   66.2234 H           1 MOL       0.2100
     36 H16        24.9011   20.3729   65.2028 H           1 MOL       0.0584
     37 H17        25.1827   20.6624   66.9405 H           1 MOL       0.0584
     38 H18        23.0749   19.9524   67.3230 H           1 MOL       0.2095
@<TRIPOS>BOND
     1     4     1   1
     2     1     3  ar
     3     1     2  ar
     4     4    14   1
     5     4     5   2
     6     5     6   1
     7     6     8   1
     8     6     7   1
     9     8    13   1
    10     8     9   1
    11     9    10  am
    12    10    12   1
    13    10    11   2
    14    13    15   1
    15    13    14   1
    16    15    17   1
    17    15    16   1
    18    17    19   1
    19    17    18   1
    20    19    20   1
    21     5    21   1
    22     6    22   1
    23     7    23   1
    24     7    24   1
    25     7    25   1
    26     8    26   1
    27     9    27   1
    28    12    28   1
    29    12    29   1
    30    12    30   1
    31    13    31   1
    32    15    32   1
    33    16    33   1
    34    17    34   1
    35    18    35   1
    36    19    36   1
    37    19    37   1
    38    20    38   1
@<TRIPOS>SUBSTRUCTURE
     1  MOL      1

