@<TRIPOS>MOLECULE
1f8c_ligand_045
    38    38
SMALL
GAST_HUCK
****
This file was generated by PARSER (from files_GN.cpp)

@<TRIPOS>ATOM
      1 C1         24.3320   19.6619   64.5036 C.2         1 MOL       0.0810
      2 O1A        23.3762   18.9414   65.1472 O.co2       1 MOL      -0.5623
      3 O1B        24.0989   20.9876   64.3434 O.co2       1 MOL      -0.5623
      4 C2         25.5470   19.1193   64.0914 C.2         1 MOL       0.1116
      5 C3         25.7380   17.7859   64.0185 C.2         1 MOL      -0.0085
      6 C4         26.9675   17.2064   63.5037 C.3         1 MOL       0.0210
      7 N4         27.2555   15.9472   64.2093 N.4         1 MOL       0.2321
      8 C5         28.1981   18.1631   63.5970 C.3         1 MOL       0.1228
      9 N5         29.2085   17.6802   62.6997 N.am        1 MOL      -0.2741
     10 C10        30.3770   17.1439   63.0140 C.2         1 MOL       0.1735
     11 O10        30.7351   16.9930   64.1767 O.2         1 MOL      -0.3974
     12 C11        31.2375   16.6917   61.9409 C.3         1 MOL       0.0257
     13 C6         27.7704   19.6151   63.2020 C.3         1 MOL       0.1349
     14 O6         26.5383   20.0153   63.8417 O.3         1 MOL      -0.3186
     15 C7         28.8282   20.7187   63.5142 C.3         1 MOL       0.1156
     16 O7         30.0865   20.3680   62.9376 O.3         1 MOL      -0.3861
     17 C8         28.9343   21.1284   65.0363 C.3         1 MOL       0.1068
     18 O8         28.6169   22.5176   65.1820 O.3         1 MOL      -0.3869
     19 C9         30.2814   20.8477   65.7563 C.3         1 MOL       0.0727
     20 O9         31.1076   22.0082   65.8849 O.3         1 MOL      -0.3924
     21 H1         24.9746   17.1607   64.1908 H           1 MOL       0.0510
     22 H2         26.7772   16.9559   62.4541 H           1 MOL       0.0996
     23 H3         26.4634   15.3049   64.1037 H           1 MOL       0.2008
     24 H4         27.4073   16.1383   65.2023 H           1 MOL       0.2008
     25 H5         28.0941   15.5185   63.8095 H           1 MOL       0.2008
     26 H6         28.5438   18.1765   64.6352 H           1 MOL       0.0664
     27 H7         28.9920   17.7131   61.7528 H           1 MOL       0.1859
     28 H8         32.1507   16.2258   62.3248 H           1 MOL       0.0467
     29 H9         31.5192   17.5438   61.3131 H           1 MOL       0.0467
     30 H10        30.7119   15.9565   61.3226 H           1 MOL       0.0467
     31 H11        27.5760   19.6246   62.1233 H           1 MOL       0.0698
     32 H12        28.5205   21.6039   62.9543 H           1 MOL       0.0650
     33 H13        30.5901   21.2125   62.8768 H           1 MOL       0.2100
     34 H14        28.1715   20.5848   65.5959 H           1 MOL       0.0643
     35 H15        28.5272   22.6758   66.1524 H           1 MOL       0.2100
     36 H16        30.8407   20.0595   65.2398 H           1 MOL       0.0584
     37 H17        30.0779   20.4926   66.7765 H           1 MOL       0.0584
     38 H18        31.0963   22.4628   65.0188 H           1 MOL       0.2095
@<TRIPOS>BOND
     1     4     1   1
     2     1     3  ar
     3     1     2  ar
     4     4    14   1
     5     4     5   2
     6     5     6   1
     7     6     8   1
     8     6     7   1
     9     8    13   1
    10     8     9   1
    11     9    10  am
    12    10    12   1
    13    10    11   2
    14    13    15   1
    15    13    14   1
    16    15    17   1
    17    15    16   1
    18    17    19   1
    19    17    18   1
    20    19    20   1
    21     5    21   1
    22     6    22   1
    23     7    23   1
    24     7    24   1
    25     7    25   1
    26     8    26   1
    27     9    27   1
    28    12    28   1
    29    12    29   1
    30    12    30   1
    31    13    31   1
    32    15    32   1
    33    16    33   1
    34    17    34   1
    35    18    35   1
    36    19    36   1
    37    19    37   1
    38    20    38   1
@<TRIPOS>SUBSTRUCTURE
     1  MOL      1

