@<TRIPOS>MOLECULE
1f8c_ligand_042
    38    38
SMALL
GAST_HUCK
****
This file was generated by PARSER (from files_GN.cpp)

@<TRIPOS>ATOM
      1 C1         25.6288   20.0148   65.0159 C.2         1 MOL       0.0810
      2 O1A        24.7508   21.0176   64.8000 O.co2       1 MOL      -0.5623
      3 O1B        25.3125   19.0740   65.9371 O.co2       1 MOL      -0.5623
      4 C2         26.5792   19.7262   64.0690 C.2         1 MOL       0.1116
      5 C3         27.8300   20.1989   64.1580 C.2         1 MOL      -0.0085
      6 C4         28.8318   19.8003   63.1845 C.3         1 MOL       0.0210
      7 N4         28.7933   20.7998   62.1033 N.4         1 MOL       0.2321
      8 C5         28.6221   18.3398   62.6374 C.3         1 MOL       0.1228
      9 N5         29.5752   17.4168   63.2044 N.am        1 MOL      -0.2741
     10 C10        29.6467   16.9871   64.4587 C.2         1 MOL       0.1735
     11 O10        28.8961   17.3959   65.3338 O.2         1 MOL      -0.3974
     12 C11        30.6370   15.9863   64.7891 C.3         1 MOL       0.0257
     13 C6         27.1354   17.8160   62.7698 C.3         1 MOL       0.1349
     14 O6         26.2330   18.9268   63.0392 O.3         1 MOL      -0.3186
     15 C7         26.6079   16.9509   61.5542 C.3         1 MOL       0.1156
     16 O7         25.2374   17.2579   61.2767 O.3         1 MOL      -0.3861
     17 C8         26.7004   15.4009   61.7254 C.3         1 MOL       0.1068
     18 O8         26.2845   15.0203   63.0440 O.3         1 MOL      -0.3869
     19 C9         28.0974   14.8258   61.3810 C.3         1 MOL       0.0727
     20 O9         28.3107   13.5405   61.9579 O.3         1 MOL      -0.3924
     21 H1         28.1036   20.7904   64.9141 H           1 MOL       0.0510
     22 H2         29.8232   19.8905   63.6379 H           1 MOL       0.0996
     23 H3         28.9567   21.7289   62.4967 H           1 MOL       0.2008
     24 H4         27.8730   20.7807   61.6518 H           1 MOL       0.2008
     25 H5         29.5203   20.5902   61.4100 H           1 MOL       0.2008
     26 H6         28.8816   18.3704   61.5756 H           1 MOL       0.0664
     27 H7         30.2299   17.0511   62.5909 H           1 MOL       0.1859
     28 H8         30.5863   15.7002   65.8430 H           1 MOL       0.0467
     29 H9         31.6380   16.3711   64.5833 H           1 MOL       0.0467
     30 H10        30.4684   15.0944   64.1840 H           1 MOL       0.0467
     31 H11        27.0712   17.1919   63.6670 H           1 MOL       0.0698
     32 H12        27.1397   17.2095   60.6410 H           1 MOL       0.0650
     33 H13        25.2572   18.0948   60.7621 H           1 MOL       0.2100
     34 H14        25.9946   14.9267   61.0318 H           1 MOL       0.0643
     35 H15        26.1107   14.0540   63.0064 H           1 MOL       0.2100
     36 H16        28.8853   15.4664   61.7556 H           1 MOL       0.0584
     37 H17        28.2191   14.7604   60.2957 H           1 MOL       0.0584
     38 H18        28.4300   12.9198   61.2007 H           1 MOL       0.2095
@<TRIPOS>BOND
     1     4     1   1
     2     1     3  ar
     3     1     2  ar
     4     4    14   1
     5     4     5   2
     6     5     6   1
     7     6     8   1
     8     6     7   1
     9     8    13   1
    10     8     9   1
    11     9    10  am
    12    10    12   1
    13    10    11   2
    14    13    15   1
    15    13    14   1
    16    15    17   1
    17    15    16   1
    18    17    19   1
    19    17    18   1
    20    19    20   1
    21     5    21   1
    22     6    22   1
    23     7    23   1
    24     7    24   1
    25     7    25   1
    26     8    26   1
    27     9    27   1
    28    12    28   1
    29    12    29   1
    30    12    30   1
    31    13    31   1
    32    15    32   1
    33    16    33   1
    34    17    34   1
    35    18    35   1
    36    19    36   1
    37    19    37   1
    38    20    38   1
@<TRIPOS>SUBSTRUCTURE
     1  MOL      1

