@<TRIPOS>MOLECULE
1f8c_ligand_015
    38    38
SMALL
GAST_HUCK
****
This file was generated by PARSER (from files_GN.cpp)

@<TRIPOS>ATOM
      1 C1         27.1422   15.0997   63.1328 C.2         1 MOL       0.0810
      2 O1A        26.7983   13.7923   63.0257 O.co2       1 MOL      -0.5623
      3 O1B        28.4646   15.3856   63.1159 O.co2       1 MOL      -0.5623
      4 C2         26.2003   16.1083   63.2247 C.2         1 MOL       0.1116
      5 C3         24.9317   15.9700   62.7896 C.2         1 MOL      -0.0085
      6 C4         23.9176   16.9999   62.9477 C.3         1 MOL       0.0210
      7 N4         23.3590   17.3486   61.6288 N.4         1 MOL       0.2321
      8 C5         24.3973   18.2668   63.7419 C.3         1 MOL       0.1228
      9 N5         24.0249   18.1057   65.1280 N.am        1 MOL      -0.2741
     10 C10        23.4999   19.0307   65.9216 C.2         1 MOL       0.1735
     11 O10        23.3052   20.1778   65.5374 O.2         1 MOL      -0.3974
     12 C11        23.1908   18.6791   67.2876 C.3         1 MOL       0.0257
     13 C6         25.9486   18.4677   63.6687 C.3         1 MOL       0.1349
     14 O6         26.6028   17.2046   63.9016 O.3         1 MOL      -0.3186
     15 C7         26.5134   19.2025   62.4075 C.3         1 MOL       0.1156
     16 O7         26.2187   18.4569   61.2246 O.3         1 MOL      -0.3861
     17 C8         28.0473   19.5457   62.5312 C.3         1 MOL       0.1068
     18 O8         28.2521   20.9598   62.5422 O.3         1 MOL      -0.3869
     19 C9         28.9629   18.8951   61.4613 C.3         1 MOL       0.0727
     20 O9         30.3349   18.9690   61.8370 O.3         1 MOL      -0.3924
     21 H1         24.6539   15.1296   62.3341 H           1 MOL       0.0510
     22 H2         23.0816   16.5379   63.4840 H           1 MOL       0.0996
     23 H3         23.1226   16.4941   61.1200 H           1 MOL       0.2008
     24 H4         24.0167   17.9032   61.0763 H           1 MOL       0.2008
     25 H5         22.5046   17.8934   61.7686 H           1 MOL       0.2008
     26 H6         23.9128   19.1549   63.3300 H           1 MOL       0.0664
     27 H7         24.1527   17.2230   65.5156 H           1 MOL       0.1859
     28 H8         22.7809   19.5258   67.8386 H           1 MOL       0.0467
     29 H9         24.0984   18.3440   67.7941 H           1 MOL       0.0467
     30 H10        22.4558   17.8699   67.3042 H           1 MOL       0.0467
     31 H11        26.2327   19.1075   64.5110 H           1 MOL       0.0698
     32 H12        25.9535   20.1409   62.3213 H           1 MOL       0.0650
     33 H13        26.4024   19.0637   60.4766 H           1 MOL       0.2100
     34 H14        28.4182   19.2061   63.5036 H           1 MOL       0.0643
     35 H15        28.4494   21.2300   61.6241 H           1 MOL       0.2100
     36 H16        28.8388   19.3892   60.4943 H           1 MOL       0.0584
     37 H17        28.7032   17.8411   61.3494 H           1 MOL       0.0584
     38 H18        30.7077   19.7078   61.3105 H           1 MOL       0.2095
@<TRIPOS>BOND
     1     4     1   1
     2     1     3  ar
     3     1     2  ar
     4     4    14   1
     5     4     5   2
     6     5     6   1
     7     6     8   1
     8     6     7   1
     9     8    13   1
    10     8     9   1
    11     9    10  am
    12    10    12   1
    13    10    11   2
    14    13    15   1
    15    13    14   1
    16    15    17   1
    17    15    16   1
    18    17    19   1
    19    17    18   1
    20    19    20   1
    21     5    21   1
    22     6    22   1
    23     7    23   1
    24     7    24   1
    25     7    25   1
    26     8    26   1
    27     9    27   1
    28    12    28   1
    29    12    29   1
    30    12    30   1
    31    13    31   1
    32    15    32   1
    33    16    33   1
    34    17    34   1
    35    18    35   1
    36    19    36   1
    37    19    37   1
    38    20    38   1
@<TRIPOS>SUBSTRUCTURE
     1  MOL      1

