@<TRIPOS>MOLECULE
1f8c_ligand_052
    38    38
SMALL
GAST_HUCK
****
This file was generated by PARSER (from files_GN.cpp)

@<TRIPOS>ATOM
      1 C1         25.6505   13.7589   62.5763 C.2         1 MOL       0.0810
      2 O1A        24.5109   13.0234   62.5681 O.co2       1 MOL      -0.5623
      3 O1B        26.7722   13.1411   63.0151 O.co2       1 MOL      -0.5623
      4 C2         25.6880   15.0989   62.2333 C.2         1 MOL       0.1116
      5 C3         24.8708   15.6092   61.2874 C.2         1 MOL      -0.0085
      6 C4         24.9118   17.0004   60.8903 C.3         1 MOL       0.0210
      7 N4         25.4222   17.0928   59.5141 N.4         1 MOL       0.2321
      8 C5         25.7285   17.9080   61.8696 C.3         1 MOL       0.1228
      9 N5         24.8627   18.2246   62.9776 N.am        1 MOL      -0.2741
     10 C10        24.9346   19.2703   63.7869 C.2         1 MOL       0.1735
     11 O10        25.8221   20.1104   63.6970 O.2         1 MOL      -0.3974
     12 C11        23.8988   19.4275   64.7876 C.3         1 MOL       0.0257
     13 C6         26.9984   17.1475   62.3710 C.3         1 MOL       0.1349
     14 O6         26.5892   15.8660   62.9129 O.3         1 MOL      -0.3186
     15 C7         28.1578   16.9923   61.3266 C.3         1 MOL       0.1156
     16 O7         28.0687   15.7400   60.6499 O.3         1 MOL      -0.3861
     17 C8         29.6145   17.1183   61.9001 C.3         1 MOL       0.1068
     18 O8         29.7345   16.4908   63.1886 O.3         1 MOL      -0.3869
     19 C9         30.1763   18.5668   61.9424 C.3         1 MOL       0.0727
     20 O9         31.5658   18.5955   61.5844 O.3         1 MOL      -0.3924
     21 H1         24.2576   15.0117   60.7866 H           1 MOL       0.0510
     22 H2         23.8814   17.3704   60.8380 H           1 MOL       0.0996
     23 H3         24.8603   16.5029   58.8931 H           1 MOL       0.2008
     24 H4         26.3991   16.7969   59.4607 H           1 MOL       0.2008
     25 H5         25.3448   18.0638   59.2073 H           1 MOL       0.2008
     26 H6         26.0098   18.8346   61.3605 H           1 MOL       0.0664
     27 H7         24.1054   17.6327   63.1250 H           1 MOL       0.1859
     28 H8         24.0591   20.3205   65.4018 H           1 MOL       0.0467
     29 H9         23.8832   18.5535   65.4455 H           1 MOL       0.0467
     30 H10        22.9243   19.5186   64.2963 H           1 MOL       0.0467
     31 H11        27.3982   17.7162   63.2105 H           1 MOL       0.0698
     32 H12        28.0497   17.7522   60.5447 H           1 MOL       0.0650
     33 H13        28.3624   15.0760   61.3121 H           1 MOL       0.2100
     34 H14        30.2715   16.5393   61.2411 H           1 MOL       0.0643
     35 H15        29.3086   17.1086   63.8314 H           1 MOL       0.2100
     36 H16        30.0631   19.0042   62.9423 H           1 MOL       0.0584
     37 H17        29.6386   19.2092   61.2304 H           1 MOL       0.0584
     38 H18        31.6497   19.3748   60.9967 H           1 MOL       0.2095
@<TRIPOS>BOND
     1     4     1   1
     2     1     3  ar
     3     1     2  ar
     4     4    14   1
     5     4     5   2
     6     5     6   1
     7     6     8   1
     8     6     7   1
     9     8    13   1
    10     8     9   1
    11     9    10  am
    12    10    12   1
    13    10    11   2
    14    13    15   1
    15    13    14   1
    16    15    17   1
    17    15    16   1
    18    17    19   1
    19    17    18   1
    20    19    20   1
    21     5    21   1
    22     6    22   1
    23     7    23   1
    24     7    24   1
    25     7    25   1
    26     8    26   1
    27     9    27   1
    28    12    28   1
    29    12    29   1
    30    12    30   1
    31    13    31   1
    32    15    32   1
    33    16    33   1
    34    17    34   1
    35    18    35   1
    36    19    36   1
    37    19    37   1
    38    20    38   1
@<TRIPOS>SUBSTRUCTURE
     1  MOL      1

