@<TRIPOS>MOLECULE
1f8c_ligand_079
    38    38
SMALL
GAST_HUCK
****
This file was generated by PARSER (from files_GN.cpp)

@<TRIPOS>ATOM
      1 C1         30.5897   16.3451   66.6431 C.2         1 MOL       0.0810
      2 O1A        30.2562   15.0362   66.7206 O.co2       1 MOL      -0.5623
      3 O1B        31.1894   16.8904   67.7295 O.co2       1 MOL      -0.5623
      4 C2         30.3765   17.1051   65.5051 C.2         1 MOL       0.1116
      5 C3         30.2419   16.5707   64.2735 C.2         1 MOL      -0.0085
      6 C4         29.9276   17.3706   63.0961 C.3         1 MOL       0.0210
      7 N4         30.8615   17.0212   62.0119 N.4         1 MOL       0.2321
      8 C5         29.9321   18.9225   63.3298 C.3         1 MOL       0.1228
      9 N5         29.1612   19.6221   62.3331 N.am        1 MOL      -0.2741
     10 C10        27.8423   19.6167   62.1715 C.2         1 MOL       0.1735
     11 O10        27.0923   18.9861   62.9063 O.2         1 MOL      -0.3974
     12 C11        27.2702   20.3899   61.0939 C.3         1 MOL       0.0257
     13 C6         29.5525   19.2491   64.8135 C.3         1 MOL       0.1349
     14 O6         30.3689   18.4399   65.6872 O.3         1 MOL      -0.3186
     15 C7         29.6913   20.7303   65.2874 C.3         1 MOL       0.1156
     16 O7         29.0110   21.5934   64.3757 O.3         1 MOL      -0.3861
     17 C8         31.1358   21.2699   65.5483 C.3         1 MOL       0.1068
     18 O8         31.9852   20.2915   66.1486 O.3         1 MOL      -0.3869
     19 C9         31.1560   22.5039   66.4922 C.3         1 MOL       0.0727
     20 O9         30.0934   23.4136   66.2329 O.3         1 MOL      -0.3924
     21 H1         30.2809   15.5829   64.1552 H           1 MOL       0.0510
     22 H2         28.9350   17.0548   62.7720 H           1 MOL       0.0996
     23 H3         30.8119   16.0174   61.8243 H           1 MOL       0.2008
     24 H4         31.8154   17.2664   62.2849 H           1 MOL       0.2008
     25 H5         30.6092   17.5332   61.1653 H           1 MOL       0.2008
     26 H6         30.9611   19.2644   63.1978 H           1 MOL       0.0664
     27 H7         29.6659   20.1573   61.6942 H           1 MOL       0.1859
     28 H8         26.1791   20.3365   61.0939 H           1 MOL       0.0467
     29 H9         27.6356   20.0112   60.1365 H           1 MOL       0.0467
     30 H10        27.5622   21.4337   61.2013 H           1 MOL       0.0467
     31 H11        28.5112   18.9571   64.9886 H           1 MOL       0.0698
     32 H12        29.1392   20.7997   66.2285 H           1 MOL       0.0650
     33 H13        29.6133   21.7054   63.6107 H           1 MOL       0.2100
     34 H14        31.5861   21.5554   64.5945 H           1 MOL       0.0643
     35 H15        32.1606   19.6278   65.4504 H           1 MOL       0.2100
     36 H16        32.1010   23.0421   66.3788 H           1 MOL       0.0584
     37 H17        31.0778   22.1754   67.5289 H           1 MOL       0.0584
     38 H18        30.2950   23.7819   65.3501 H           1 MOL       0.2095
@<TRIPOS>BOND
     1     4     1   1
     2     1     3  ar
     3     1     2  ar
     4     4    14   1
     5     4     5   2
     6     5     6   1
     7     6     8   1
     8     6     7   1
     9     8    13   1
    10     8     9   1
    11     9    10  am
    12    10    12   1
    13    10    11   2
    14    13    15   1
    15    13    14   1
    16    15    17   1
    17    15    16   1
    18    17    19   1
    19    17    18   1
    20    19    20   1
    21     5    21   1
    22     6    22   1
    23     7    23   1
    24     7    24   1
    25     7    25   1
    26     8    26   1
    27     9    27   1
    28    12    28   1
    29    12    29   1
    30    12    30   1
    31    13    31   1
    32    15    32   1
    33    16    33   1
    34    17    34   1
    35    18    35   1
    36    19    36   1
    37    19    37   1
    38    20    38   1
@<TRIPOS>SUBSTRUCTURE
     1  MOL      1

