@<TRIPOS>MOLECULE
1f8c_ligand_013
    38    38
SMALL
GAST_HUCK
****
This file was generated by PARSER (from files_GN.cpp)

@<TRIPOS>ATOM
      1 C1         24.2988   20.1936   65.5279 C.2         1 MOL       0.0810
      2 O1A        23.0176   19.7747   65.6691 O.co2       1 MOL      -0.5623
      3 O1B        24.5699   21.0731   64.5352 O.co2       1 MOL      -0.5623
      4 C2         25.3004   19.3878   66.0057 C.2         1 MOL       0.1116
      5 C3         25.5459   19.3322   67.3317 C.2         1 MOL      -0.0085
      6 C4         26.5379   18.4233   67.8961 C.3         1 MOL       0.0210
      7 N4         27.4180   19.1721   68.8048 N.4         1 MOL       0.2321
      8 C5         27.3819   17.6609   66.8264 C.3         1 MOL       0.1228
      9 N5         27.8750   16.4372   67.3925 N.am        1 MOL      -0.2741
     10 C10        29.1341   16.1361   67.6861 C.2         1 MOL       0.1735
     11 O10        30.0579   16.9108   67.4574 O.2         1 MOL      -0.3974
     12 C11        29.4077   14.8638   68.3024 C.3         1 MOL       0.0257
     13 C6         26.4963   17.3885   65.5710 C.3         1 MOL       0.1349
     14 O6         26.0200   18.6770   65.0998 O.3         1 MOL      -0.3186
     15 C7         27.1962   16.6011   64.4200 C.3         1 MOL       0.1156
     16 O7         28.4625   17.1876   64.1047 O.3         1 MOL      -0.3861
     17 C8         26.3608   16.5215   63.1021 C.3         1 MOL       0.1068
     18 O8         24.9544   16.3948   63.3539 O.3         1 MOL      -0.3869
     19 C9         26.8029   15.3595   62.1655 C.3         1 MOL       0.0727
     20 O9         26.8794   14.1132   62.8699 O.3         1 MOL      -0.3924
     21 H1         24.9898   19.8655   67.9644 H           1 MOL       0.0510
     22 H2         25.9790   17.7043   68.4983 H           1 MOL       0.0996
     23 H3         26.8575   19.6518   69.5098 H           1 MOL       0.2008
     24 H4         27.9598   19.8608   68.2777 H           1 MOL       0.2008
     25 H5         28.0564   18.5227   69.2684 H           1 MOL       0.2008
     26 H6         28.1999   18.3140   66.5079 H           1 MOL       0.0664
     27 H7         27.2033   15.7700   67.6020 H           1 MOL       0.1859
     28 H8         30.4787   14.7194   68.4660 H           1 MOL       0.0467
     29 H9         29.0433   14.0575   67.6639 H           1 MOL       0.0467
     30 H10        28.9004   14.8091   69.2672 H           1 MOL       0.0467
     31 H11        25.6288   16.7912   65.8748 H           1 MOL       0.0698
     32 H12        27.3714   15.5741   64.7644 H           1 MOL       0.0650
     33 H13        29.0496   16.9442   64.8544 H           1 MOL       0.2100
     34 H14        26.4872   17.4620   62.5485 H           1 MOL       0.0643
     35 H15        24.8500   15.5331   63.8261 H           1 MOL       0.2100
     36 H16        27.7909   15.5726   61.7478 H           1 MOL       0.0584
     37 H17        26.0942   15.2610   61.3316 H           1 MOL       0.0584
     38 H18        25.9471   13.7852   62.9242 H           1 MOL       0.2095
@<TRIPOS>BOND
     1     4     1   1
     2     1     3  ar
     3     1     2  ar
     4     4    14   1
     5     4     5   2
     6     5     6   1
     7     6     8   1
     8     6     7   1
     9     8    13   1
    10     8     9   1
    11     9    10  am
    12    10    12   1
    13    10    11   2
    14    13    15   1
    15    13    14   1
    16    15    17   1
    17    15    16   1
    18    17    19   1
    19    17    18   1
    20    19    20   1
    21     5    21   1
    22     6    22   1
    23     7    23   1
    24     7    24   1
    25     7    25   1
    26     8    26   1
    27     9    27   1
    28    12    28   1
    29    12    29   1
    30    12    30   1
    31    13    31   1
    32    15    32   1
    33    16    33   1
    34    17    34   1
    35    18    35   1
    36    19    36   1
    37    19    37   1
    38    20    38   1
@<TRIPOS>SUBSTRUCTURE
     1  MOL      1

