@<TRIPOS>MOLECULE
1f8c_ligand_049
    38    38
SMALL
GAST_HUCK
****
This file was generated by PARSER (from files_GN.cpp)

@<TRIPOS>ATOM
      1 C1         36.0687   18.8110   65.1825 C.2         1 MOL       0.0810
      2 O1A        36.9238   19.5236   64.4117 O.co2       1 MOL      -0.5623
      3 O1B        36.4394   18.5784   66.4680 O.co2       1 MOL      -0.5623
      4 C2         34.8975   18.2880   64.6749 C.2         1 MOL       0.1116
      5 C3         34.8252   17.6934   63.4693 C.2         1 MOL      -0.0085
      6 C4         33.5965   17.0957   62.9651 C.3         1 MOL       0.0210
      7 N4         33.4560   17.4534   61.5444 N.4         1 MOL       0.2321
      8 C5         32.3100   17.4770   63.7760 C.3         1 MOL       0.1228
      9 N5         31.2830   16.5030   63.5277 N.am        1 MOL      -0.2741
     10 C10        30.4154   16.4838   62.5258 C.2         1 MOL       0.1735
     11 O10        30.4808   17.2837   61.5933 O.2         1 MOL      -0.3974
     12 C11        29.3570   15.4980   62.5370 C.3         1 MOL       0.0257
     13 C6         32.6743   17.5754   65.2906 C.3         1 MOL       0.1349
     14 O6         33.7998   18.4628   65.4364 O.3         1 MOL      -0.3186
     15 C7         31.5463   18.1364   66.2224 C.3         1 MOL       0.1156
     16 O7         32.1247   18.5925   67.4540 O.3         1 MOL      -0.3861
     17 C8         30.3457   17.1972   66.5617 C.3         1 MOL       0.1068
     18 O8         29.3581   17.9342   67.2964 O.3         1 MOL      -0.3869
     19 C9         30.7114   15.9368   67.4053 C.3         1 MOL       0.0727
     20 O9         29.8140   14.8675   67.1159 O.3         1 MOL      -0.3924
     21 H1         35.6721   17.5503   62.9481 H           1 MOL       0.0510
     22 H2         33.7554   16.0137   63.0085 H           1 MOL       0.0996
     23 H3         34.3191   17.2291   61.0258 H           1 MOL       0.2008
     24 H4         33.2693   18.4602   61.4637 H           1 MOL       0.2008
     25 H5         32.6702   16.9284   61.1520 H           1 MOL       0.2008
     26 H6         31.9820   18.4715   63.4532 H           1 MOL       0.0664
     27 H7         31.1390   15.8407   64.2272 H           1 MOL       0.1859
     28 H8         28.7408   15.5555   61.6286 H           1 MOL       0.0467
     29 H9         28.7073   15.6673   63.4064 H           1 MOL       0.0467
     30 H10        29.7831   14.4904   62.6012 H           1 MOL       0.0467
     31 H11        32.9850   16.5900   65.6456 H           1 MOL       0.0698
     32 H12        31.1408   19.0277   65.7292 H           1 MOL       0.0650
     33 H13        32.6077   17.8213   67.8198 H           1 MOL       0.2100
     34 H14        29.8646   16.8771   65.6353 H           1 MOL       0.0643
     35 H15        28.9877   18.5705   66.6501 H           1 MOL       0.2100
     36 H16        30.6676   16.1738   68.4801 H           1 MOL       0.0584
     37 H17        31.7245   15.5801   67.1650 H           1 MOL       0.0584
     38 H18        29.0308   15.0316   67.6960 H           1 MOL       0.2095
@<TRIPOS>BOND
     1     4     1   1
     2     1     3  ar
     3     1     2  ar
     4     4    14   1
     5     4     5   2
     6     5     6   1
     7     6     8   1
     8     6     7   1
     9     8    13   1
    10     8     9   1
    11     9    10  am
    12    10    12   1
    13    10    11   2
    14    13    15   1
    15    13    14   1
    16    15    17   1
    17    15    16   1
    18    17    19   1
    19    17    18   1
    20    19    20   1
    21     5    21   1
    22     6    22   1
    23     7    23   1
    24     7    24   1
    25     7    25   1
    26     8    26   1
    27     9    27   1
    28    12    28   1
    29    12    29   1
    30    12    30   1
    31    13    31   1
    32    15    32   1
    33    16    33   1
    34    17    34   1
    35    18    35   1
    36    19    36   1
    37    19    37   1
    38    20    38   1
@<TRIPOS>SUBSTRUCTURE
     1  MOL      1

