@<TRIPOS>MOLECULE
1f8c_ligand_027
    38    38
SMALL
GAST_HUCK
****
This file was generated by PARSER (from files_GN.cpp)

@<TRIPOS>ATOM
      1 C1         28.5239   15.5538   62.9111 C.2         1 MOL       0.0810
      2 O1A        27.6668   14.5150   62.7591 O.co2       1 MOL      -0.5623
      3 O1B        29.6747   15.2998   63.5790 O.co2       1 MOL      -0.5623
      4 C2         28.2460   16.7736   62.3261 C.2         1 MOL       0.1116
      5 C3         29.2203   17.6182   61.9294 C.2         1 MOL      -0.0085
      6 C4         28.9565   18.8618   61.2188 C.3         1 MOL       0.0210
      7 N4         29.4997   19.9789   62.0136 N.4         1 MOL       0.2321
      8 C5         27.4553   19.1024   60.8406 C.3         1 MOL       0.1228
      9 N5         27.1858   18.8179   59.4528 N.am        1 MOL      -0.2741
     10 C10        27.2661   17.6608   58.8045 C.2         1 MOL       0.1735
     11 O10        27.6973   16.6435   59.3332 O.2         1 MOL      -0.3974
     12 C11        26.8032   17.5928   57.4356 C.3         1 MOL       0.0257
     13 C6         26.4760   18.3393   61.7976 C.3         1 MOL       0.1349
     14 O6         26.9409   17.0016   62.0618 O.3         1 MOL      -0.3186
     15 C7         26.1114   19.1079   63.1093 C.3         1 MOL       0.1156
     16 O7         27.2683   19.4453   63.8732 O.3         1 MOL      -0.3861
     17 C8         25.1102   18.3605   64.0470 C.3         1 MOL       0.1068
     18 O8         24.0942   17.6866   63.3064 O.3         1 MOL      -0.3869
     19 C9         24.4322   19.3012   65.0787 C.3         1 MOL       0.0727
     20 O9         24.0149   20.5343   64.4935 O.3         1 MOL      -0.3924
     21 H1         30.1789   17.3922   62.0984 H           1 MOL       0.0510
     22 H2         29.5519   18.8464   60.3047 H           1 MOL       0.0996
     23 H3         30.5027   19.8380   62.1568 H           1 MOL       0.2008
     24 H4         29.0357   20.0314   62.9190 H           1 MOL       0.2008
     25 H5         29.3554   20.8574   61.5087 H           1 MOL       0.2008
     26 H6         27.2491   20.1720   60.9265 H           1 MOL       0.0664
     27 H7         26.8817   19.5707   58.9253 H           1 MOL       0.1859
     28 H8         26.9444   16.5959   57.0087 H           1 MOL       0.0467
     29 H9         27.3446   18.3118   56.8175 H           1 MOL       0.0467
     30 H10        25.7376   17.8269   57.4023 H           1 MOL       0.0467
     31 H11        25.5354   18.2153   61.2549 H           1 MOL       0.0698
     32 H12        25.6521   20.0489   62.8015 H           1 MOL       0.0650
     33 H13        27.6660   18.5939   64.1495 H           1 MOL       0.2100
     34 H14        25.6530   17.5853   64.6004 H           1 MOL       0.0643
     35 H15        23.6783   18.3753   62.7466 H           1 MOL       0.2100
     36 H16        25.1241   19.5301   65.8945 H           1 MOL       0.0584
     37 H17        23.5562   18.8098   65.5083 H           1 MOL       0.0584
     38 H18        23.5149   20.2870   63.6895 H           1 MOL       0.2095
@<TRIPOS>BOND
     1     4     1   1
     2     1     3  ar
     3     1     2  ar
     4     4    14   1
     5     4     5   2
     6     5     6   1
     7     6     8   1
     8     6     7   1
     9     8    13   1
    10     8     9   1
    11     9    10  am
    12    10    12   1
    13    10    11   2
    14    13    15   1
    15    13    14   1
    16    15    17   1
    17    15    16   1
    18    17    19   1
    19    17    18   1
    20    19    20   1
    21     5    21   1
    22     6    22   1
    23     7    23   1
    24     7    24   1
    25     7    25   1
    26     8    26   1
    27     9    27   1
    28    12    28   1
    29    12    29   1
    30    12    30   1
    31    13    31   1
    32    15    32   1
    33    16    33   1
    34    17    34   1
    35    18    35   1
    36    19    36   1
    37    19    37   1
    38    20    38   1
@<TRIPOS>SUBSTRUCTURE
     1  MOL      1

