@<TRIPOS>MOLECULE
1f8c_ligand_012
    38    38
SMALL
GAST_HUCK
****
This file was generated by PARSER (from files_GN.cpp)

@<TRIPOS>ATOM
      1 C1         24.0096   19.4805   64.3723 C.2         1 MOL       0.0810
      2 O1A        23.5860   20.7657   64.3125 O.co2       1 MOL      -0.5623
      3 O1B        23.2331   18.6132   65.0719 O.co2       1 MOL      -0.5623
      4 C2         25.2031   19.1108   63.7762 C.2         1 MOL       0.1116
      5 C3         25.4998   17.8335   63.4519 C.2         1 MOL      -0.0085
      6 C4         26.7405   17.4569   62.7923 C.3         1 MOL       0.0210
      7 N4         27.3881   16.3563   63.5288 N.4         1 MOL       0.2321
      8 C5         27.7230   18.6639   62.5278 C.3         1 MOL       0.1228
      9 N5         27.4710   19.1076   61.1774 N.am        1 MOL      -0.2741
     10 C10        28.3163   19.1527   60.1588 C.2         1 MOL       0.1735
     11 O10        29.5062   18.9067   60.2957 O.2         1 MOL      -0.3974
     12 C11        27.7996   19.4628   58.8440 C.3         1 MOL       0.0257
     13 C6         27.4570   19.8725   63.5006 C.3         1 MOL       0.1349
     14 O6         26.0427   20.1339   63.4726 O.3         1 MOL      -0.3186
     15 C7         28.0433   19.7191   64.9528 C.3         1 MOL       0.1156
     16 O7         27.7916   18.3939   65.4334 O.3         1 MOL      -0.3861
     17 C8         27.5475   20.7179   66.0730 C.3         1 MOL       0.1068
     18 O8         26.2560   21.2472   65.7758 O.3         1 MOL      -0.3869
     19 C9         28.5103   21.8892   66.4144 C.3         1 MOL       0.0727
     20 O9         28.3093   23.0169   65.5716 O.3         1 MOL      -0.3924
     21 H1         24.8434   17.1101   63.6598 H           1 MOL       0.0510
     22 H2         26.4509   17.0050   61.8394 H           1 MOL       0.0996
     23 H3         26.7171   15.5930   63.6462 H           1 MOL       0.2008
     24 H4         27.7072   16.6692   64.4473 H           1 MOL       0.2008
     25 H5         28.1861   16.0108   62.9906 H           1 MOL       0.2008
     26 H6         28.7597   18.3334   62.6393 H           1 MOL       0.0664
     27 H7         26.5440   19.3200   60.9684 H           1 MOL       0.1859
     28 H8         28.5923   19.4839   58.0949 H           1 MOL       0.0467
     29 H9         27.3086   20.4365   58.8563 H           1 MOL       0.0467
     30 H10        27.0721   18.7036   58.5519 H           1 MOL       0.0467
     31 H11        27.9359   20.7545   63.0802 H           1 MOL       0.0698
     32 H12        29.1398   19.8025   64.8709 H           1 MOL       0.0650
     33 H13        28.5043   18.2189   66.0940 H           1 MOL       0.2100
     34 H14        27.4506   20.1489   67.0060 H           1 MOL       0.0643
     35 H15        25.6492   20.8983   66.4823 H           1 MOL       0.2100
     36 H16        29.5518   21.5698   66.3430 H           1 MOL       0.0584
     37 H17        28.3348   22.2122   67.4459 H           1 MOL       0.0584
     38 H18        27.8552   23.6760   66.1431 H           1 MOL       0.2095
@<TRIPOS>BOND
     1     4     1   1
     2     1     3  ar
     3     1     2  ar
     4     4    14   1
     5     4     5   2
     6     5     6   1
     7     6     8   1
     8     6     7   1
     9     8    13   1
    10     8     9   1
    11     9    10  am
    12    10    12   1
    13    10    11   2
    14    13    15   1
    15    13    14   1
    16    15    17   1
    17    15    16   1
    18    17    19   1
    19    17    18   1
    20    19    20   1
    21     5    21   1
    22     6    22   1
    23     7    23   1
    24     7    24   1
    25     7    25   1
    26     8    26   1
    27     9    27   1
    28    12    28   1
    29    12    29   1
    30    12    30   1
    31    13    31   1
    32    15    32   1
    33    16    33   1
    34    17    34   1
    35    18    35   1
    36    19    36   1
    37    19    37   1
    38    20    38   1
@<TRIPOS>SUBSTRUCTURE
     1  MOL      1

