@<TRIPOS>MOLECULE
1f8c_ligand_072
    38    38
SMALL
GAST_HUCK
****
This file was generated by PARSER (from files_GN.cpp)

@<TRIPOS>ATOM
      1 C1         25.4075   13.6954   62.6047 C.2         1 MOL       0.0810
      2 O1A        26.5506   13.1439   63.0653 O.co2       1 MOL      -0.5623
      3 O1B        24.3214   12.8843   62.5528 O.co2       1 MOL      -0.5623
      4 C2         25.3867   15.0237   62.2249 C.2         1 MOL       0.1116
      5 C3         24.2316   15.7062   62.0532 C.2         1 MOL      -0.0085
      6 C4         24.2130   17.0809   61.5684 C.3         1 MOL       0.0210
      7 N4         23.5019   17.1113   60.2788 N.4         1 MOL       0.2321
      8 C5         25.6265   17.7360   61.4152 C.3         1 MOL       0.1228
      9 N5         25.9973   18.3562   62.6639 N.am        1 MOL      -0.2741
     10 C10        26.7269   19.4511   62.8170 C.2         1 MOL       0.1735
     11 O10        27.1076   20.1153   61.8649 O.2         1 MOL      -0.3974
     12 C11        27.1075   19.8481   64.1501 C.3         1 MOL       0.0257
     13 C6         26.7042   16.6619   61.0603 C.3         1 MOL       0.1349
     14 O6         26.5960   15.6179   62.0495 O.3         1 MOL      -0.3186
     15 C7         26.6909   16.0450   59.6254 C.3         1 MOL       0.1156
     16 O7         27.9332   15.3576   59.4320 O.3         1 MOL      -0.3861
     17 C8         26.4531   17.0071   58.4233 C.3         1 MOL       0.1068
     18 O8         26.5275   16.2193   57.2356 O.3         1 MOL      -0.3869
     19 C9         27.4306   18.2159   58.3315 C.3         1 MOL       0.0727
     20 O9         27.6157   18.6436   56.9789 O.3         1 MOL      -0.3924
     21 H1         23.3534   15.2663   62.2140 H           1 MOL       0.0510
     22 H2         23.6026   17.6827   62.2603 H           1 MOL       0.0996
     23 H3         22.5268   16.8355   60.4023 H           1 MOL       0.2008
     24 H4         23.9544   16.4832   59.6074 H           1 MOL       0.2008
     25 H5         23.5444   18.0654   59.9140 H           1 MOL       0.2008
     26 H6         25.5952   18.4979   60.6304 H           1 MOL       0.0664
     27 H7         25.7748   17.8682   63.4724 H           1 MOL       0.1859
     28 H8         27.7609   20.7235   64.1408 H           1 MOL       0.0467
     29 H9         27.6440   19.0351   64.6390 H           1 MOL       0.0467
     30 H10        26.2193   20.0885   64.7349 H           1 MOL       0.0467
     31 H11        27.6793   17.1187   61.1901 H           1 MOL       0.0698
     32 H12        25.9019   15.2830   59.5753 H           1 MOL       0.0650
     33 H13        27.9837   14.6682   60.1264 H           1 MOL       0.2100
     34 H14        25.4382   17.4041   58.4852 H           1 MOL       0.0643
     35 H15        26.1581   16.7807   56.5200 H           1 MOL       0.2100
     36 H16        28.4057   17.9627   58.7602 H           1 MOL       0.0584
     37 H17        27.0216   19.0635   58.8950 H           1 MOL       0.0584
     38 H18        28.1636   17.9408   56.5718 H           1 MOL       0.2095
@<TRIPOS>BOND
     1     4     1   1
     2     1     3  ar
     3     1     2  ar
     4     4    14   1
     5     4     5   2
     6     5     6   1
     7     6     8   1
     8     6     7   1
     9     8    13   1
    10     8     9   1
    11     9    10  am
    12    10    12   1
    13    10    11   2
    14    13    15   1
    15    13    14   1
    16    15    17   1
    17    15    16   1
    18    17    19   1
    19    17    18   1
    20    19    20   1
    21     5    21   1
    22     6    22   1
    23     7    23   1
    24     7    24   1
    25     7    25   1
    26     8    26   1
    27     9    27   1
    28    12    28   1
    29    12    29   1
    30    12    30   1
    31    13    31   1
    32    15    32   1
    33    16    33   1
    34    17    34   1
    35    18    35   1
    36    19    36   1
    37    19    37   1
    38    20    38   1
@<TRIPOS>SUBSTRUCTURE
     1  MOL      1

