@<TRIPOS>MOLECULE
1f8d_ligand_017
    38    38
SMALL
GAST_HUCK
****
This file was generated by PARSER (from files_GN.cpp)

@<TRIPOS>ATOM
      1 C1         31.1803   17.1840   62.0879 C.2         1 MOL       0.0809
      2 C2         29.8866   17.0114   62.5210 C.2         1 MOL       0.1088
      3 C3         29.5569   17.0342   63.8325 C.2         1 MOL      -0.0276
      4 C4         28.1968   16.8315   64.3003 C.3         1 MOL       0.1003
      5 C5         27.1700   16.4331   63.1798 C.3         1 MOL       0.1064
      6 C6         27.5894   17.1240   61.8380 C.3         1 MOL       0.1322
      7 C7         26.7233   16.8908   60.5570 C.3         1 MOL       0.1183
      8 C8         27.1337   15.7335   59.5752 C.3         1 MOL       0.1232
      9 C9         26.6964   14.2861   59.9352 C.3         1 MOL      -0.0062
     10 C10        25.2115   17.7878   63.8946 C.2         1 MOL       0.1734
     11 C11        23.8298   17.7593   64.3197 C.3         1 MOL       0.0257
     12 N5         25.8136   16.6418   63.6102 N.am        1 MOL      -0.2770
     13 O1A        31.7890   16.2250   61.3280 O.co2       1 MOL      -0.5623
     14 O1B        31.8950   18.3175   62.3566 O.co2       1 MOL      -0.5623
     15 O4         28.2331   15.8346   65.3211 O.3         1 MOL      -0.3807
     16 O6         28.9533   16.7503   61.5617 O.3         1 MOL      -0.3189
     17 O7         25.3145   16.8101   60.8497 O.3         1 MOL      -0.3860
     18 O8         26.6755   16.0373   58.2603 O.3         1 MOL      -0.3838
     19 N9         25.2566   14.1306   60.1904 N.4         1 MOL       0.2204
     20 O10        25.7803   18.8671   63.7986 O.2         1 MOL      -0.3974
     21 H1         30.2668   17.2398   64.5195 H           1 MOL       0.0480
     22 H2         27.8997   17.7726   64.7746 H           1 MOL       0.0740
     23 H3         27.2702   15.3585   63.0193 H           1 MOL       0.0632
     24 H4         27.5696   18.2007   62.0227 H           1 MOL       0.0697
     25 H5         26.8536   17.8098   59.9525 H           1 MOL       0.0652
     26 H6         28.2213   15.7250   59.4914 H           1 MOL       0.0674
     27 H7         27.2447   13.9304   60.8065 H           1 MOL       0.0840
     28 H8         26.9503   13.6314   59.0923 H           1 MOL       0.0840
     29 H9         23.4508   18.7646   64.5236 H           1 MOL       0.0467
     30 H10        23.7370   17.1663   65.2306 H           1 MOL       0.0467
     31 H11        23.2131   17.3110   63.5390 H           1 MOL       0.0467
     32 H12        25.2760   15.8423   63.7105 H           1 MOL       0.1858
     33 H13        27.3481   15.8646   65.7372 H           1 MOL       0.2127
     34 H14        24.9416   17.6749   60.5385 H           1 MOL       0.2100
     35 H15        25.6968   15.9759   58.2729 H           1 MOL       0.2101
     36 H16        25.0086   13.1307   60.1833 H           1 MOL       0.1995
     37 H17        24.7244   14.5993   59.4520 H           1 MOL       0.1995
     38 H18        25.0218   14.5438   61.1041 H           1 MOL       0.1995
@<TRIPOS>BOND
     1     1    14  ar
     2     1    13  ar
     3     1     2   1
     4     2    16   1
     5     2     3   2
     6     3     4   1
     7     4    15   1
     8     4     5   1
     9     5    12   1
    10     5     6   1
    11     6    16   1
    12     6     7   1
    13     7    17   1
    14     7     8   1
    15     8    18   1
    16     8     9   1
    17     9    19   1
    18    12    10  am
    19    10    20   2
    20    10    11   1
    21     3    21   1
    22     4    22   1
    23     5    23   1
    24     6    24   1
    25     7    25   1
    26     8    26   1
    27     9    27   1
    28     9    28   1
    29    11    29   1
    30    11    30   1
    31    11    31   1
    32    12    32   1
    33    15    33   1
    34    17    34   1
    35    18    35   1
    36    19    36   1
    37    19    37   1
    38    19    38   1
@<TRIPOS>SUBSTRUCTURE
     1  MOL      1

