@<TRIPOS>MOLECULE
1f8d_ligand_050
    38    38
SMALL
GAST_HUCK
****
This file was generated by PARSER (from files_GN.cpp)

@<TRIPOS>ATOM
      1 C1         27.6585   16.9191   66.5803 C.2         1 MOL       0.0809
      2 C2         27.0635   17.5459   65.4863 C.2         1 MOL       0.1088
      3 C3         26.1481   18.5306   65.6153 C.2         1 MOL      -0.0276
      4 C4         25.5016   19.1594   64.4581 C.3         1 MOL       0.1003
      5 C5         26.1976   18.8042   63.1090 C.3         1 MOL       0.1064
      6 C6         26.6188   17.2976   63.1159 C.3         1 MOL       0.1322
      7 C7         25.4905   16.2144   63.1599 C.3         1 MOL       0.1183
      8 C8         24.2875   16.3406   62.1707 C.3         1 MOL       0.1232
      9 C9         24.4772   15.7674   60.7410 C.3         1 MOL      -0.0062
     10 C10        27.6650   20.5758   62.1633 C.2         1 MOL       0.1734
     11 C11        28.8529   21.3664   62.4147 C.3         1 MOL       0.0257
     12 N5         27.3830   19.6145   63.0262 N.am        1 MOL      -0.2770
     13 O1A        28.2717   15.7228   66.4200 O.co2       1 MOL      -0.5623
     14 O1B        27.5731   17.4037   67.8382 O.co2       1 MOL      -0.5623
     15 O4         24.1251   18.7785   64.4411 O.3         1 MOL      -0.3807
     16 O6         27.4867   17.1204   64.2695 O.3         1 MOL      -0.3189
     17 O7         26.0846   14.9196   63.0295 O.3         1 MOL      -0.3860
     18 O8         23.1833   15.6465   62.7571 O.3         1 MOL      -0.3838
     19 N9         25.2366   16.6349   59.8343 N.4         1 MOL       0.2204
     20 O10        26.9464   20.8292   61.2057 O.2         1 MOL      -0.3974
     21 H1         25.8411   18.8222   66.5166 H           1 MOL       0.0480
     22 H2         25.5217   20.2465   64.6021 H           1 MOL       0.0740
     23 H3         25.5236   19.0142   62.2711 H           1 MOL       0.0632
     24 H4         27.2236   17.1095   62.2293 H           1 MOL       0.0697
     25 H5         25.0652   16.2343   64.1661 H           1 MOL       0.0652
     26 H6         23.9800   17.3825   62.0948 H           1 MOL       0.0674
     27 H7         23.4902   15.6450   60.2848 H           1 MOL       0.0840
     28 H8         24.9543   14.7851   60.7760 H           1 MOL       0.0840
     29 H9         28.9135   22.2234   61.7414 H           1 MOL       0.0467
     30 H10        29.7416   20.7466   62.2812 H           1 MOL       0.0467
     31 H11        28.8405   21.7461   63.4400 H           1 MOL       0.0467
     32 H12        28.0250   19.4940   63.7473 H           1 MOL       0.1858
     33 H13        23.7513   19.1535   63.6120 H           1 MOL       0.2127
     34 H14        26.5352   14.7462   63.8823 H           1 MOL       0.2100
     35 H15        23.5181   14.7454   62.9593 H           1 MOL       0.2101
     36 H16        25.1099   16.2667   58.8898 H           1 MOL       0.1995
     37 H17        26.2275   16.6265   60.0803 H           1 MOL       0.1995
     38 H18        24.8739   17.5866   59.8767 H           1 MOL       0.1995
@<TRIPOS>BOND
     1     1    14  ar
     2     1    13  ar
     3     1     2   1
     4     2    16   1
     5     2     3   2
     6     3     4   1
     7     4    15   1
     8     4     5   1
     9     5    12   1
    10     5     6   1
    11     6    16   1
    12     6     7   1
    13     7    17   1
    14     7     8   1
    15     8    18   1
    16     8     9   1
    17     9    19   1
    18    12    10  am
    19    10    20   2
    20    10    11   1
    21     3    21   1
    22     4    22   1
    23     5    23   1
    24     6    24   1
    25     7    25   1
    26     8    26   1
    27     9    27   1
    28     9    28   1
    29    11    29   1
    30    11    30   1
    31    11    31   1
    32    12    32   1
    33    15    33   1
    34    17    34   1
    35    18    35   1
    36    19    36   1
    37    19    37   1
    38    19    38   1
@<TRIPOS>SUBSTRUCTURE
     1  MOL      1

