@<TRIPOS>MOLECULE
1f8d_ligand_059
    38    38
SMALL
GAST_HUCK
****
This file was generated by PARSER (from files_GN.cpp)

@<TRIPOS>ATOM
      1 C1         28.0460   14.4332   61.5524 C.2         1 MOL       0.0809
      2 C2         28.2720   15.6781   62.1228 C.2         1 MOL       0.1088
      3 C3         27.8784   15.9800   63.3772 C.2         1 MOL      -0.0276
      4 C4         28.1303   17.2646   64.0066 C.3         1 MOL       0.1003
      5 C5         29.0271   18.2506   63.1774 C.3         1 MOL       0.1064
      6 C6         28.9673   17.9517   61.6386 C.3         1 MOL       0.1322
      7 C7         27.8032   18.6722   60.8707 C.3         1 MOL       0.1183
      8 C8         27.8603   18.4961   59.3119 C.3         1 MOL       0.1232
      9 C9         27.1901   17.1956   58.7621 C.3         1 MOL      -0.0062
     10 C10        31.2783   17.3366   63.7769 C.2         1 MOL       0.1734
     11 C11        32.5746   17.6393   64.3490 C.3         1 MOL       0.0257
     12 N5         30.3832   18.3132   63.6736 N.am        1 MOL      -0.2770
     13 O1A        28.3895   14.1915   60.2655 O.co2       1 MOL      -0.5623
     14 O1B        27.4152   13.4239   62.1980 O.co2       1 MOL      -0.5623
     15 O4         26.8551   17.8498   64.2939 O.3         1 MOL      -0.3807
     16 O6         29.0123   16.5303   61.3823 O.3         1 MOL      -0.3189
     17 O7         26.5066   18.3015   61.3610 O.3         1 MOL      -0.3860
     18 O8         27.2995   19.6487   58.6783 O.3         1 MOL      -0.3838
     19 N9         25.8267   17.3847   58.2425 N.4         1 MOL       0.2204
     20 O10        31.0334   16.1907   63.4179 O.2         1 MOL      -0.3974
     21 H1         27.3588   15.3155   63.9068 H           1 MOL       0.0480
     22 H2         28.6060   17.0683   64.9735 H           1 MOL       0.0740
     23 H3         28.6523   19.2664   63.3394 H           1 MOL       0.0632
     24 H4         29.8846   18.3565   61.1994 H           1 MOL       0.0697
     25 H5         27.9155   19.7496   61.0632 H           1 MOL       0.0652
     26 H6         28.9065   18.4846   59.0101 H           1 MOL       0.0674
     27 H7         27.1215   16.4325   59.5472 H           1 MOL       0.0840
     28 H8         27.7922   16.7672   57.9500 H           1 MOL       0.0840
     29 H9         33.2061   16.7484   64.4050 H           1 MOL       0.0467
     30 H10        32.4497   18.0370   65.3590 H           1 MOL       0.0467
     31 H11        33.0849   18.3855   63.7338 H           1 MOL       0.0467
     32 H12        30.6735   19.1833   64.0003 H           1 MOL       0.1858
     33 H13        27.0504   18.6399   64.8450 H           1 MOL       0.2127
     34 H14        26.4735   18.6780   62.2627 H           1 MOL       0.2100
     35 H15        27.5190   19.5616   57.7312 H           1 MOL       0.2101
     36 H16        25.3412   16.4883   58.2075 H           1 MOL       0.1995
     37 H17        25.8714   17.7867   57.3023 H           1 MOL       0.1995
     38 H18        25.3150   18.0095   58.8673 H           1 MOL       0.1995
@<TRIPOS>BOND
     1     1    14  ar
     2     1    13  ar
     3     1     2   1
     4     2    16   1
     5     2     3   2
     6     3     4   1
     7     4    15   1
     8     4     5   1
     9     5    12   1
    10     5     6   1
    11     6    16   1
    12     6     7   1
    13     7    17   1
    14     7     8   1
    15     8    18   1
    16     8     9   1
    17     9    19   1
    18    12    10  am
    19    10    20   2
    20    10    11   1
    21     3    21   1
    22     4    22   1
    23     5    23   1
    24     6    24   1
    25     7    25   1
    26     8    26   1
    27     9    27   1
    28     9    28   1
    29    11    29   1
    30    11    30   1
    31    11    31   1
    32    12    32   1
    33    15    33   1
    34    17    34   1
    35    18    35   1
    36    19    36   1
    37    19    37   1
    38    19    38   1
@<TRIPOS>SUBSTRUCTURE
     1  MOL      1

