@<TRIPOS>MOLECULE
1f8d_ligand_008
    38    38
SMALL
GAST_HUCK
****
This file was generated by PARSER (from files_GN.cpp)

@<TRIPOS>ATOM
      1 C1         25.3308   19.7831   64.0653 C.2         1 MOL       0.0809
      2 C2         26.5982   19.8977   63.5550 C.2         1 MOL       0.1088
      3 C3         27.6305   20.3567   64.2870 C.2         1 MOL      -0.0276
      4 C4         28.9431   20.4746   63.6818 C.3         1 MOL       0.1003
      5 C5         29.2407   19.3927   62.5897 C.3         1 MOL       0.1064
      6 C6         27.9257   18.8143   61.9287 C.3         1 MOL       0.1322
      7 C7         28.0055   18.7118   60.3802 C.3         1 MOL       0.1183
      8 C8         27.0388   17.6393   59.8031 C.3         1 MOL       0.1232
      9 C9         26.8900   17.6808   58.2625 C.3         1 MOL      -0.0062
     10 C10        29.9290   17.5096   64.0487 C.2         1 MOL       0.1734
     11 C11        30.8842   16.4438   64.2494 C.3         1 MOL       0.0257
     12 N5         30.1161   18.3401   63.0369 N.am        1 MOL      -0.2770
     13 O1A        24.9815   18.6091   64.6569 O.co2       1 MOL      -0.5623
     14 O1B        24.6023   20.8839   64.4030 O.co2       1 MOL      -0.5623
     15 O4         29.0536   21.7868   63.1294 O.3         1 MOL      -0.3807
     16 O6         26.7520   19.6165   62.2422 O.3         1 MOL      -0.3189
     17 O7         27.7197   20.0013   59.8167 O.3         1 MOL      -0.3860
     18 O8         27.4723   16.3231   60.1841 O.3         1 MOL      -0.3838
     19 N9         25.5123   17.3822   57.8719 N.4         1 MOL       0.2204
     20 O10        28.9660   17.5916   64.8000 O.2         1 MOL      -0.3974
     21 H1         27.5208   20.5493   65.2641 H           1 MOL       0.0480
     22 H2         29.6960   20.4316   64.4734 H           1 MOL       0.0740
     23 H3         29.8245   19.8943   61.8098 H           1 MOL       0.0632
     24 H4         27.7546   17.7992   62.3241 H           1 MOL       0.0697
     25 H5         29.0296   18.4481   60.0903 H           1 MOL       0.0652
     26 H6         26.0437   17.7791   60.2485 H           1 MOL       0.0674
     27 H7         27.5507   16.9489   57.7857 H           1 MOL       0.0840
     28 H8         27.1316   18.6815   57.8693 H           1 MOL       0.0840
     29 H9         30.6274   15.8201   65.1131 H           1 MOL       0.0467
     30 H10        31.8817   16.8648   64.4114 H           1 MOL       0.0467
     31 H11        30.9089   15.8094   63.3624 H           1 MOL       0.0467
     32 H12        30.9083   18.1858   62.5019 H           1 MOL       0.1858
     33 H13        28.9401   21.6998   62.1546 H           1 MOL       0.2127
     34 H14        26.8650   20.2881   60.2214 H           1 MOL       0.2100
     35 H15        28.3869   16.2307   59.8338 H           1 MOL       0.2101
     36 H16        25.3933   17.4722   56.8680 H           1 MOL       0.1995
     37 H17        24.8904   18.0334   58.3499 H           1 MOL       0.1995
     38 H18        25.2449   16.4376   58.1473 H           1 MOL       0.1995
@<TRIPOS>BOND
     1     1    14  ar
     2     1    13  ar
     3     1     2   1
     4     2    16   1
     5     2     3   2
     6     3     4   1
     7     4    15   1
     8     4     5   1
     9     5    12   1
    10     5     6   1
    11     6    16   1
    12     6     7   1
    13     7    17   1
    14     7     8   1
    15     8    18   1
    16     8     9   1
    17     9    19   1
    18    12    10  am
    19    10    20   2
    20    10    11   1
    21     3    21   1
    22     4    22   1
    23     5    23   1
    24     6    24   1
    25     7    25   1
    26     8    26   1
    27     9    27   1
    28     9    28   1
    29    11    29   1
    30    11    30   1
    31    11    31   1
    32    12    32   1
    33    15    33   1
    34    17    34   1
    35    18    35   1
    36    19    36   1
    37    19    37   1
    38    19    38   1
@<TRIPOS>SUBSTRUCTURE
     1  MOL      1

