@<TRIPOS>MOLECULE
1f8d_ligand_061
    38    38
SMALL
GAST_HUCK
****
This file was generated by PARSER (from files_GN.cpp)

@<TRIPOS>ATOM
      1 C1         27.0836   15.4553   62.2279 C.2         1 MOL       0.0809
      2 C2         28.1567   16.2706   62.5361 C.2         1 MOL       0.1088
      3 C3         28.7237   16.2716   63.7573 C.2         1 MOL      -0.0276
      4 C4         29.8687   17.0912   64.1059 C.3         1 MOL       0.1003
      5 C5         30.5454   17.8093   62.8906 C.3         1 MOL       0.1064
      6 C6         29.5162   18.1098   61.7475 C.3         1 MOL       0.1322
      7 C7         28.6952   19.4384   61.8425 C.3         1 MOL       0.1183
      8 C8         27.4682   19.5904   60.8833 C.3         1 MOL       0.1232
      9 C9         27.6651   19.1554   59.3931 C.3         1 MOL      -0.0062
     10 C10        32.7713   17.3112   61.9108 C.2         1 MOL       0.1734
     11 C11        33.6977   16.2941   61.4693 C.3         1 MOL       0.0257
     12 N5         31.5822   16.9482   62.3760 N.am        1 MOL      -0.2770
     13 O1A        26.9857   14.1948   62.7104 O.co2       1 MOL      -0.5623
     14 O1B        26.1734   15.8323   61.3010 O.co2       1 MOL      -0.5623
     15 O4         29.4276   18.0232   65.0880 O.3         1 MOL      -0.3807
     16 O6         28.6690   16.9705   61.5050 O.3         1 MOL      -0.3189
     17 O7         28.2337   19.6958   63.1691 O.3         1 MOL      -0.3860
     18 O8         26.3104   18.9666   61.4427 O.3         1 MOL      -0.3838
     19 N9         26.8434   18.0009   59.0046 N.4         1 MOL       0.2204
     20 O10        33.0928   18.4874   61.8172 O.2         1 MOL      -0.3974
     21 H1         28.3102   15.7387   64.4880 H           1 MOL       0.0480
     22 H2         30.5966   16.4505   64.6092 H           1 MOL       0.0740
     23 H3         30.9882   18.7479   63.2416 H           1 MOL       0.0632
     24 H4         30.1002   18.2209   60.8315 H           1 MOL       0.0697
     25 H5         29.3774   20.2589   61.6056 H           1 MOL       0.0652
     26 H6         27.2221   20.6546   60.8633 H           1 MOL       0.0674
     27 H7         28.7025   18.9168   59.1740 H           1 MOL       0.0840
     28 H8         27.3914   19.9773   58.7297 H           1 MOL       0.0840
     29 H9         34.6138   16.7260   61.0640 H           1 MOL       0.0467
     30 H10        33.2362   15.6866   60.6931 H           1 MOL       0.0467
     31 H11        33.9697   15.6542   62.3073 H           1 MOL       0.0467
     32 H12        31.3779   16.0014   62.3390 H           1 MOL       0.1858
     33 H13        30.2369   18.4674   65.4180 H           1 MOL       0.2127
     34 H14        29.0322   19.8957   63.7008 H           1 MOL       0.2100
     35 H15        25.9907   19.5649   62.1512 H           1 MOL       0.2101
     36 H16        26.9877   17.7773   58.0169 H           1 MOL       0.1995
     37 H17        25.8604   18.2311   59.1575 H           1 MOL       0.1995
     38 H18        27.0957   17.1946   59.5742 H           1 MOL       0.1995
@<TRIPOS>BOND
     1     1    14  ar
     2     1    13  ar
     3     1     2   1
     4     2    16   1
     5     2     3   2
     6     3     4   1
     7     4    15   1
     8     4     5   1
     9     5    12   1
    10     5     6   1
    11     6    16   1
    12     6     7   1
    13     7    17   1
    14     7     8   1
    15     8    18   1
    16     8     9   1
    17     9    19   1
    18    12    10  am
    19    10    20   2
    20    10    11   1
    21     3    21   1
    22     4    22   1
    23     5    23   1
    24     6    24   1
    25     7    25   1
    26     8    26   1
    27     9    27   1
    28     9    28   1
    29    11    29   1
    30    11    30   1
    31    11    31   1
    32    12    32   1
    33    15    33   1
    34    17    34   1
    35    18    35   1
    36    19    36   1
    37    19    37   1
    38    19    38   1
@<TRIPOS>SUBSTRUCTURE
     1  MOL      1

