@<TRIPOS>MOLECULE
1f8d_ligand_078
    38    38
SMALL
GAST_HUCK
****
This file was generated by PARSER (from files_GN.cpp)

@<TRIPOS>ATOM
      1 C1         28.8460   16.3980   64.5361 C.2         1 MOL       0.0809
      2 C2         29.3748   17.6294   64.2499 C.2         1 MOL       0.1088
      3 C3         28.6062   18.6906   63.9501 C.2         1 MOL      -0.0276
      4 C4         29.1505   20.0011   63.6262 C.3         1 MOL       0.1003
      5 C5         30.6966   20.1422   63.8324 C.3         1 MOL       0.1064
      6 C6         31.4107   18.7776   63.6239 C.3         1 MOL       0.1322
      7 C7         31.6718   18.3607   62.1269 C.3         1 MOL       0.1183
      8 C8         32.2634   16.9317   61.9623 C.3         1 MOL       0.1232
      9 C9         33.6705   16.7356   62.5887 C.3         1 MOL      -0.0062
     10 C10        31.1356   21.7790   65.6345 C.2         1 MOL       0.1734
     11 C11        31.3490   21.9844   67.0449 C.3         1 MOL       0.0257
     12 N5         30.9475   20.5496   65.1904 N.am        1 MOL      -0.2770
     13 O1A        29.0341   15.8359   65.7559 O.co2       1 MOL      -0.5623
     14 O1B        28.1906   15.6821   63.5954 O.co2       1 MOL      -0.5623
     15 O4         28.7939   20.2917   62.2795 O.3         1 MOL      -0.3807
     16 O6         30.7043   17.8005   64.4226 O.3         1 MOL      -0.3189
     17 O7         30.5027   18.4443   61.3220 O.3         1 MOL      -0.3860
     18 O8         31.3827   15.9492   62.4956 O.3         1 MOL      -0.3838
     19 N9         34.6305   17.7570   62.1568 N.4         1 MOL       0.2204
     20 O10        31.1258   22.7515   64.8811 O.2         1 MOL      -0.3974
     21 H1         27.6180   18.5850   63.9233 H           1 MOL       0.0480
     22 H2         28.6392   20.7581   64.2231 H           1 MOL       0.0740
     23 H3         31.1047   20.8750   63.1355 H           1 MOL       0.0632
     24 H4         32.4096   18.8499   64.0675 H           1 MOL       0.0697
     25 H5         32.3742   19.0712   61.6813 H           1 MOL       0.0652
     26 H6         32.3354   16.7018   60.8936 H           1 MOL       0.0674
     27 H7         34.0654   15.7593   62.3117 H           1 MOL       0.0840
     28 H8         33.5952   16.7731   63.6777 H           1 MOL       0.0840
     29 H9         31.4980   23.0405   67.2838 H           1 MOL       0.0467
     30 H10        32.2347   21.4316   67.3629 H           1 MOL       0.0467
     31 H11        30.4843   21.6232   67.6056 H           1 MOL       0.0467
     32 H12        30.9490   19.8475   65.8597 H           1 MOL       0.1858
     33 H13        29.1498   21.1795   62.0666 H           1 MOL       0.2127
     34 H14        30.4897   19.3779   60.9995 H           1 MOL       0.2100
     35 H15        31.3783   16.1202   63.4617 H           1 MOL       0.2101
     36 H16        35.5226   17.6103   62.6292 H           1 MOL       0.1995
     37 H17        34.2819   18.6789   62.4059 H           1 MOL       0.1995
     38 H18        34.7748   17.7129   61.1441 H           1 MOL       0.1995
@<TRIPOS>BOND
     1     1    14  ar
     2     1    13  ar
     3     1     2   1
     4     2    16   1
     5     2     3   2
     6     3     4   1
     7     4    15   1
     8     4     5   1
     9     5    12   1
    10     5     6   1
    11     6    16   1
    12     6     7   1
    13     7    17   1
    14     7     8   1
    15     8    18   1
    16     8     9   1
    17     9    19   1
    18    12    10  am
    19    10    20   2
    20    10    11   1
    21     3    21   1
    22     4    22   1
    23     5    23   1
    24     6    24   1
    25     7    25   1
    26     8    26   1
    27     9    27   1
    28     9    28   1
    29    11    29   1
    30    11    30   1
    31    11    31   1
    32    12    32   1
    33    15    33   1
    34    17    34   1
    35    18    35   1
    36    19    36   1
    37    19    37   1
    38    19    38   1
@<TRIPOS>SUBSTRUCTURE
     1  MOL      1

