@<TRIPOS>MOLECULE
1f8d_ligand_044
    38    38
SMALL
GAST_HUCK
****
This file was generated by PARSER (from files_GN.cpp)

@<TRIPOS>ATOM
      1 C1         24.2820   19.1533   64.4068 C.2         1 MOL       0.0809
      2 C2         25.2058   18.2883   63.8611 C.2         1 MOL       0.1088
      3 C3         26.1657   17.7247   64.6323 C.2         1 MOL      -0.0276
      4 C4         27.1452   16.7905   64.1039 C.3         1 MOL       0.1003
      5 C5         26.8876   16.3065   62.6374 C.3         1 MOL       0.1064
      6 C6         26.1031   17.3845   61.8174 C.3         1 MOL       0.1322
      7 C7         27.0048   18.5134   61.2013 C.3         1 MOL       0.1183
      8 C8         27.6514   18.1182   59.8328 C.3         1 MOL       0.1232
      9 C9         26.6896   18.1477   58.6052 C.3         1 MOL      -0.0062
     10 C10        26.3836   13.9661   61.9965 C.2         1 MOL       0.1734
     11 C11        25.4282   12.8863   62.0560 C.3         1 MOL       0.0257
     12 N5         26.1134   15.0895   62.6430 N.am        1 MOL      -0.2770
     13 O1A        23.0653   18.6609   64.7376 O.co2       1 MOL      -0.5623
     14 O1B        24.3145   20.4555   64.0352 O.co2       1 MOL      -0.5623
     15 O4         28.4122   17.4376   64.2058 O.3         1 MOL      -0.3807
     16 O6         24.9850   17.8711   62.6020 O.3         1 MOL      -0.3189
     17 O7         26.2822   19.7345   61.0552 O.3         1 MOL      -0.3860
     18 O8         28.7510   18.9875   59.5606 O.3         1 MOL      -0.3838
     19 N9         27.1390   17.2670   57.5215 N.4         1 MOL       0.2204
     20 O10        27.4001   13.8229   61.3250 O.2         1 MOL      -0.3974
     21 H1         26.2498   17.9965   65.5830 H           1 MOL       0.0480
     22 H2         27.1849   15.9227   64.7672 H           1 MOL       0.0740
     23 H3         27.8541   16.1232   62.1583 H           1 MOL       0.0632
     24 H4         25.6241   16.8758   60.9799 H           1 MOL       0.0697
     25 H5         27.8144   18.7298   61.9025 H           1 MOL       0.0652
     26 H6         28.0708   17.1135   59.9318 H           1 MOL       0.0674
     27 H7         26.6306   19.1627   58.2113 H           1 MOL       0.0840
     28 H8         25.6819   17.8341   58.8758 H           1 MOL       0.0840
     29 H9         25.7452   12.0283   61.4609 H           1 MOL       0.0467
     30 H10        24.4625   13.2284   61.6818 H           1 MOL       0.0467
     31 H11        25.3141   12.5626   63.0885 H           1 MOL       0.0467
     32 H12        25.2712   15.1218   63.1242 H           1 MOL       0.1858
     33 H13        29.0771   16.7482   63.9995 H           1 MOL       0.2127
     34 H14        26.0844   20.0300   61.9698 H           1 MOL       0.2100
     35 H15        28.3669   19.8902   59.5262 H           1 MOL       0.2101
     36 H16        26.4868   17.3163   56.7326 H           1 MOL       0.1995
     37 H17        27.1755   16.3045   57.8637 H           1 MOL       0.1995
     38 H18        28.0660   17.5554   57.2084 H           1 MOL       0.1995
@<TRIPOS>BOND
     1     1    14  ar
     2     1    13  ar
     3     1     2   1
     4     2    16   1
     5     2     3   2
     6     3     4   1
     7     4    15   1
     8     4     5   1
     9     5    12   1
    10     5     6   1
    11     6    16   1
    12     6     7   1
    13     7    17   1
    14     7     8   1
    15     8    18   1
    16     8     9   1
    17     9    19   1
    18    12    10  am
    19    10    20   2
    20    10    11   1
    21     3    21   1
    22     4    22   1
    23     5    23   1
    24     6    24   1
    25     7    25   1
    26     8    26   1
    27     9    27   1
    28     9    28   1
    29    11    29   1
    30    11    30   1
    31    11    31   1
    32    12    32   1
    33    15    33   1
    34    17    34   1
    35    18    35   1
    36    19    36   1
    37    19    37   1
    38    19    38   1
@<TRIPOS>SUBSTRUCTURE
     1  MOL      1

