@<TRIPOS>MOLECULE
1f8d_ligand_010
    38    38
SMALL
GAST_HUCK
****
This file was generated by PARSER (from files_GN.cpp)

@<TRIPOS>ATOM
      1 C1         23.6491   19.7497   64.4394 C.2         1 MOL       0.0809
      2 C2         24.0931   18.6964   63.6597 C.2         1 MOL       0.1088
      3 C3         23.3685   17.5838   63.4281 C.2         1 MOL      -0.0276
      4 C4         23.9491   16.5317   62.6038 C.3         1 MOL       0.1003
      5 C5         25.4265   16.2773   63.0425 C.3         1 MOL       0.1064
      6 C6         26.1882   17.6588   63.1991 C.3         1 MOL       0.1322
      7 C7         26.9866   17.8251   64.5341 C.3         1 MOL       0.1183
      8 C8         28.1961   16.8534   64.7248 C.3         1 MOL       0.1232
      9 C9         28.8648   16.9516   66.1259 C.3         1 MOL      -0.0062
     10 C10        25.9747   14.0864   62.0356 C.2         1 MOL       0.1734
     11 C11        26.8274   13.3542   61.1277 C.3         1 MOL       0.0257
     12 N5         26.1184   15.4007   62.1309 N.am        1 MOL      -0.2770
     13 O1A        24.2966   20.9379   64.4017 O.co2       1 MOL      -0.5623
     14 O1B        22.7017   19.5842   65.3936 O.co2       1 MOL      -0.5623
     15 O4         23.1532   15.3479   62.6682 O.3         1 MOL      -0.3807
     16 O6         25.3001   18.8057   63.0578 O.3         1 MOL      -0.3189
     17 O7         27.4807   19.1697   64.6143 O.3         1 MOL      -0.3860
     18 O8         27.8364   15.4893   64.4960 O.3         1 MOL      -0.3838
     19 N9         27.8809   17.0406   67.2187 N.4         1 MOL       0.2204
     20 O10        25.1689   13.4697   62.7260 O.2         1 MOL      -0.3974
     21 H1         22.4766   17.4470   63.8508 H           1 MOL       0.0480
     22 H2         23.9446   16.8736   61.5641 H           1 MOL       0.0740
     23 H3         25.3817   15.7990   64.0255 H           1 MOL       0.0632
     24 H4         26.9051   17.7738   62.3818 H           1 MOL       0.0697
     25 H5         26.2894   17.6944   65.3658 H           1 MOL       0.0652
     26 H6         28.9558   17.1017   63.9735 H           1 MOL       0.0674
     27 H7         29.5154   17.8337   66.1701 H           1 MOL       0.0840
     28 H8         29.4898   16.0695   66.2949 H           1 MOL       0.0840
     29 H9         26.5885   12.2879   61.1297 H           1 MOL       0.0467
     30 H10        27.8712   13.4742   61.4301 H           1 MOL       0.0467
     31 H11        26.7029   13.7337   60.1100 H           1 MOL       0.0467
     32 H12        26.7969   15.8056   61.5657 H           1 MOL       0.1858
     33 H13        23.2286   15.0323   63.5953 H           1 MOL       0.2127
     34 H14        28.0757   19.2720   63.8419 H           1 MOL       0.2100
     35 H15        27.1249   15.2947   65.1407 H           1 MOL       0.2101
     36 H16        28.3449   16.8526   68.1114 H           1 MOL       0.1995
     37 H17        27.1285   16.3644   67.0646 H           1 MOL       0.1995
     38 H18        27.4855   17.9859   67.2348 H           1 MOL       0.1995
@<TRIPOS>BOND
     1     1    14  ar
     2     1    13  ar
     3     1     2   1
     4     2    16   1
     5     2     3   2
     6     3     4   1
     7     4    15   1
     8     4     5   1
     9     5    12   1
    10     5     6   1
    11     6    16   1
    12     6     7   1
    13     7    17   1
    14     7     8   1
    15     8    18   1
    16     8     9   1
    17     9    19   1
    18    12    10  am
    19    10    20   2
    20    10    11   1
    21     3    21   1
    22     4    22   1
    23     5    23   1
    24     6    24   1
    25     7    25   1
    26     8    26   1
    27     9    27   1
    28     9    28   1
    29    11    29   1
    30    11    30   1
    31    11    31   1
    32    12    32   1
    33    15    33   1
    34    17    34   1
    35    18    35   1
    36    19    36   1
    37    19    37   1
    38    19    38   1
@<TRIPOS>SUBSTRUCTURE
     1  MOL      1

