@<TRIPOS>MOLECULE
1f8d_ligand_060
    38    38
SMALL
GAST_HUCK
****
This file was generated by PARSER (from files_GN.cpp)

@<TRIPOS>ATOM
      1 C1         30.1750   15.6934   62.5557 C.2         1 MOL       0.0809
      2 C2         29.0682   16.5090   62.6480 C.2         1 MOL       0.1088
      3 C3         28.4327   16.6865   63.8254 C.2         1 MOL      -0.0276
      4 C4         27.3066   17.5857   63.9736 C.3         1 MOL       0.1003
      5 C5         26.9791   18.4196   62.6908 C.3         1 MOL       0.1064
      6 C6         27.3396   17.6199   61.3869 C.3         1 MOL       0.1322
      7 C7         26.3274   16.5215   60.8593 C.3         1 MOL       0.1183
      8 C8         26.5771   15.0441   61.3219 C.3         1 MOL       0.1232
      9 C9         25.5119   14.0043   60.8644 C.3         1 MOL      -0.0062
     10 C10        28.8679   20.1149   62.6653 C.2         1 MOL       0.1734
     11 C11        29.1942   21.5195   62.8338 C.3         1 MOL       0.0257
     12 N5         27.5919   19.7350   62.7470 N.am        1 MOL      -0.2770
     13 O1A        31.2170   16.0377   61.7555 O.co2       1 MOL      -0.5623
     14 O1B        30.1339   14.4123   63.0197 O.co2       1 MOL      -0.5623
     15 O4         26.1749   16.8004   64.3588 O.3         1 MOL      -0.3807
     16 O6         28.6964   17.1285   61.5146 O.3         1 MOL      -0.3189
     17 O7         24.9838   16.8918   61.1641 O.3         1 MOL      -0.3860
     18 O8         27.8468   14.5805   60.8390 O.3         1 MOL      -0.3838
     19 N9         25.6147   13.7014   59.4319 N.4         1 MOL       0.2204
     20 O10        29.7880   19.3248   62.4814 O.2         1 MOL      -0.3974
     21 H1         28.7423   16.1990   64.6538 H           1 MOL       0.0480
     22 H2         27.5236   18.2610   64.8091 H           1 MOL       0.0740
     23 H3         25.9132   18.6278   62.6871 H           1 MOL       0.0632
     24 H4         27.3636   18.3631   60.5787 H           1 MOL       0.0697
     25 H5         26.3890   16.5009   59.7669 H           1 MOL       0.0652
     26 H6         26.6062   15.0216   62.4118 H           1 MOL       0.0674
     27 H7         24.5012   14.3566   61.0835 H           1 MOL       0.0840
     28 H8         25.6627   13.0702   61.4097 H           1 MOL       0.0840
     29 H9         30.2516   21.7073   62.6245 H           1 MOL       0.0467
     30 H10        28.9865   21.8181   63.8598 H           1 MOL       0.0467
     31 H11        28.5942   22.1258   62.1574 H           1 MOL       0.0467
     32 H12        26.9636   20.4659   62.8927 H           1 MOL       0.1858
     33 H13        25.5012   17.4466   64.6727 H           1 MOL       0.2127
     34 H14        24.8171   17.7386   60.6954 H           1 MOL       0.2100
     35 H15        27.9125   13.6448   61.1216 H           1 MOL       0.2101
     36 H16        24.9771   12.9389   59.2101 H           1 MOL       0.1995
     37 H17        26.5693   13.4172   59.2093 H           1 MOL       0.1995
     38 H18        25.3560   14.5202   58.8836 H           1 MOL       0.1995
@<TRIPOS>BOND
     1     1    14  ar
     2     1    13  ar
     3     1     2   1
     4     2    16   1
     5     2     3   2
     6     3     4   1
     7     4    15   1
     8     4     5   1
     9     5    12   1
    10     5     6   1
    11     6    16   1
    12     6     7   1
    13     7    17   1
    14     7     8   1
    15     8    18   1
    16     8     9   1
    17     9    19   1
    18    12    10  am
    19    10    20   2
    20    10    11   1
    21     3    21   1
    22     4    22   1
    23     5    23   1
    24     6    24   1
    25     7    25   1
    26     8    26   1
    27     9    27   1
    28     9    28   1
    29    11    29   1
    30    11    30   1
    31    11    31   1
    32    12    32   1
    33    15    33   1
    34    17    34   1
    35    18    35   1
    36    19    36   1
    37    19    37   1
    38    19    38   1
@<TRIPOS>SUBSTRUCTURE
     1  MOL      1

