@<TRIPOS>MOLECULE
1f8d_ligand_011
    38    38
SMALL
GAST_HUCK
****
This file was generated by PARSER (from files_GN.cpp)

@<TRIPOS>ATOM
      1 C1         24.0441   19.8742   64.4628 C.2         1 MOL       0.0809
      2 C2         24.7816   18.9442   63.7118 C.2         1 MOL       0.1088
      3 C3         25.9724   19.2546   63.1588 C.2         1 MOL      -0.0276
      4 C4         26.7137   18.3376   62.3417 C.3         1 MOL       0.1003
      5 C5         25.8606   17.1683   61.7552 C.3         1 MOL       0.1064
      6 C6         24.8808   16.6336   62.8695 C.3         1 MOL       0.1322
      7 C7         23.7418   15.6674   62.3878 C.3         1 MOL       0.1183
      8 C8         24.0934   14.5448   61.3563 C.3         1 MOL       0.1232
      9 C9         25.0055   13.4126   61.8918 C.3         1 MOL      -0.0062
     10 C10        27.3834   15.2005   61.6669 C.2         1 MOL       0.1734
     11 C11        28.1945   14.3597   60.7985 C.3         1 MOL       0.0257
     12 N5         26.7046   16.2007   61.1147 N.am        1 MOL      -0.2770
     13 O1A        22.7894   19.5778   64.8721 O.co2       1 MOL      -0.5623
     14 O1B        24.5158   21.1003   64.7441 O.co2       1 MOL      -0.5623
     15 O4         27.3357   19.0452   61.2514 O.3         1 MOL      -0.3807
     16 O6         24.1710   17.7670   63.4610 O.3         1 MOL      -0.3189
     17 O7         23.1672   15.0230   63.5264 O.3         1 MOL      -0.3860
     18 O8         22.8662   13.9984   60.8319 O.3         1 MOL      -0.3838
     19 N9         24.2725   12.2068   62.3040 N.4         1 MOL       0.2204
     20 O10        27.3305   14.9437   62.8518 O.2         1 MOL      -0.3974
     21 H1         26.3981   20.1474   63.3598 H           1 MOL       0.0480
     22 H2         27.5234   17.9387   62.9510 H           1 MOL       0.0740
     23 H3         25.2272   17.5846   60.9818 H           1 MOL       0.0632
     24 H4         25.4453   16.1576   63.6643 H           1 MOL       0.0697
     25 H5         22.9606   16.2759   61.9275 H           1 MOL       0.0652
     26 H6         24.5786   15.0196   60.4940 H           1 MOL       0.0674
     27 H7         25.5952   13.7472   62.7723 H           1 MOL       0.0840
     28 H8         25.7118   13.1082   61.1139 H           1 MOL       0.0840
     29 H9         28.5703   13.4874   61.3452 H           1 MOL       0.0467
     30 H10        29.0396   14.9322   60.4225 H           1 MOL       0.0467
     31 H11        27.6043   14.0049   59.9508 H           1 MOL       0.0467
     32 H12        26.7909   16.2987   60.1555 H           1 MOL       0.1858
     33 H13        26.6016   19.3606   60.6832 H           1 MOL       0.2127
     34 H14        22.6684   15.7302   64.0057 H           1 MOL       0.2100
     35 H15        23.1566   13.2509   60.2598 H           1 MOL       0.2101
     36 H16        24.9392   11.5301   62.6745 H           1 MOL       0.1995
     37 H17        23.8279   11.8142   61.4697 H           1 MOL       0.1995
     38 H18        23.5812   12.4562   63.0005 H           1 MOL       0.1995
@<TRIPOS>BOND
     1     1    14  ar
     2     1    13  ar
     3     1     2   1
     4     2    16   1
     5     2     3   2
     6     3     4   1
     7     4    15   1
     8     4     5   1
     9     5    12   1
    10     5     6   1
    11     6    16   1
    12     6     7   1
    13     7    17   1
    14     7     8   1
    15     8    18   1
    16     8     9   1
    17     9    19   1
    18    12    10  am
    19    10    20   2
    20    10    11   1
    21     3    21   1
    22     4    22   1
    23     5    23   1
    24     6    24   1
    25     7    25   1
    26     8    26   1
    27     9    27   1
    28     9    28   1
    29    11    29   1
    30    11    30   1
    31    11    31   1
    32    12    32   1
    33    15    33   1
    34    17    34   1
    35    18    35   1
    36    19    36   1
    37    19    37   1
    38    19    38   1
@<TRIPOS>SUBSTRUCTURE
     1  MOL      1

