@<TRIPOS>MOLECULE
1f8d_ligand_074
    38    38
SMALL
GAST_HUCK
****
This file was generated by PARSER (from files_GN.cpp)

@<TRIPOS>ATOM
      1 C1         23.6683   14.3749   61.5353 C.2         1 MOL       0.0809
      2 C2         25.0126   14.7192   61.5527 C.2         1 MOL       0.1088
      3 C3         25.8882   14.3131   60.6093 C.2         1 MOL      -0.0276
      4 C4         27.2769   14.7765   60.6001 C.3         1 MOL       0.1003
      5 C5         27.6984   15.6016   61.8659 C.3         1 MOL       0.1064
      6 C6         26.4710   16.4216   62.3648 C.3         1 MOL       0.1322
      7 C7         26.7461   17.2454   63.6568 C.3         1 MOL       0.1183
      8 C8         25.5139   17.9604   64.3069 C.3         1 MOL       0.1232
      9 C9         24.1300   17.2376   64.2633 C.3         1 MOL      -0.0062
     10 C10        29.8071   16.8050   62.3914 C.2         1 MOL       0.1734
     11 C11        30.8067   17.7249   61.9190 C.3         1 MOL       0.0257
     12 N5         28.8268   16.4428   61.5657 N.am        1 MOL      -0.2770
     13 O1A        22.8636   14.6131   60.4765 O.co2       1 MOL      -0.5623
     14 O1B        23.0524   13.9716   62.6744 O.co2       1 MOL      -0.5623
     15 O4         28.1578   13.6546   60.4723 O.3         1 MOL      -0.3807
     16 O6         25.4174   15.4528   62.6094 O.3         1 MOL      -0.3189
     17 O7         27.4529   16.4526   64.6246 O.3         1 MOL      -0.3860
     18 O8         25.8249   18.2337   65.6869 O.3         1 MOL      -0.3838
     19 N9         23.3861   17.4810   63.0155 N.4         1 MOL       0.2204
     20 O10        29.8762   16.3959   63.5460 O.2         1 MOL      -0.3974
     21 H1         25.5776   13.7421   59.8589 H           1 MOL       0.0480
     22 H2         27.4045   15.3928   59.6961 H           1 MOL       0.0740
     23 H3         27.9435   14.8871   62.6638 H           1 MOL       0.0632
     24 H4         26.1618   17.1210   61.5788 H           1 MOL       0.0697
     25 H5         27.4466   18.0484   63.3937 H           1 MOL       0.0652
     26 H6         25.3912   18.9440   63.8348 H           1 MOL       0.0674
     27 H7         23.4971   17.6111   65.0693 H           1 MOL       0.0840
     28 H8         24.2499   16.1681   64.4138 H           1 MOL       0.0840
     29 H9         31.5684   17.9222   62.6782 H           1 MOL       0.0467
     30 H10        30.3475   18.6799   61.6387 H           1 MOL       0.0467
     31 H11        31.3109   17.3024   61.0409 H           1 MOL       0.0467
     32 H12        28.8606   16.8138   60.6668 H           1 MOL       0.1858
     33 H13        28.0725   13.3559   59.5433 H           1 MOL       0.2127
     34 H14        26.7746   15.8807   65.0462 H           1 MOL       0.2100
     35 H15        25.6794   17.3787   66.1551 H           1 MOL       0.2101
     36 H16        22.4706   17.0201   63.0597 H           1 MOL       0.1995
     37 H17        23.9001   17.1253   62.2118 H           1 MOL       0.1995
     38 H18        23.2498   18.4845   62.8875 H           1 MOL       0.1995
@<TRIPOS>BOND
     1     1    14  ar
     2     1    13  ar
     3     1     2   1
     4     2    16   1
     5     2     3   2
     6     3     4   1
     7     4    15   1
     8     4     5   1
     9     5    12   1
    10     5     6   1
    11     6    16   1
    12     6     7   1
    13     7    17   1
    14     7     8   1
    15     8    18   1
    16     8     9   1
    17     9    19   1
    18    12    10  am
    19    10    20   2
    20    10    11   1
    21     3    21   1
    22     4    22   1
    23     5    23   1
    24     6    24   1
    25     7    25   1
    26     8    26   1
    27     9    27   1
    28     9    28   1
    29    11    29   1
    30    11    30   1
    31    11    31   1
    32    12    32   1
    33    15    33   1
    34    17    34   1
    35    18    35   1
    36    19    36   1
    37    19    37   1
    38    19    38   1
@<TRIPOS>SUBSTRUCTURE
     1  MOL      1

