@<TRIPOS>MOLECULE
1f8d_ligand_065
    38    38
SMALL
GAST_HUCK
****
This file was generated by PARSER (from files_GN.cpp)

@<TRIPOS>ATOM
      1 C1         28.4703   18.3713   65.1860 C.2         1 MOL       0.0809
      2 C2         27.3809   18.2349   64.3331 C.2         1 MOL       0.1088
      3 C3         26.7272   19.2922   63.8300 C.2         1 MOL      -0.0276
      4 C4         25.6152   19.1515   62.9004 C.3         1 MOL       0.1003
      5 C5         25.0749   17.6930   62.7406 C.3         1 MOL       0.1064
      6 C6         26.2290   16.6538   62.8986 C.3         1 MOL       0.1322
      7 C7         25.7665   15.1624   63.0013 C.3         1 MOL       0.1183
      8 C8         25.3805   14.4372   61.6781 C.3         1 MOL       0.1232
      9 C9         26.5536   14.1997   60.6909 C.3         1 MOL      -0.0062
     10 C10        23.1407   17.4682   61.2147 C.2         1 MOL       0.1734
     11 C11        22.7254   17.1825   59.8594 C.3         1 MOL       0.0257
     12 N5         24.4405   17.5390   61.4673 N.am        1 MOL      -0.2770
     13 O1A        29.3642   17.3736   65.3233 O.co2       1 MOL      -0.5623
     14 O1B        28.6348   19.4682   65.9608 O.co2       1 MOL      -0.5623
     15 O4         24.5845   20.0405   63.3364 O.3         1 MOL      -0.3807
     16 O6         26.9618   16.9745   64.0936 O.3         1 MOL      -0.3189
     17 O7         26.7535   14.3760   63.6706 O.3         1 MOL      -0.3860
     18 O8         24.7977   13.1767   62.0192 O.3         1 MOL      -0.3838
     19 N9         26.0711   13.7963   59.3672 N.4         1 MOL       0.2204
     20 O10        22.3038   17.7193   62.0744 O.2         1 MOL      -0.3974
     21 H1         27.0569   20.2183   64.0070 H           1 MOL       0.0480
     22 H2         25.9665   19.5198   61.9323 H           1 MOL       0.0740
     23 H3         24.3713   17.5151   63.5609 H           1 MOL       0.0632
     24 H4         26.9313   16.7638   62.0671 H           1 MOL       0.0697
     25 H5         24.8776   15.1532   63.6408 H           1 MOL       0.0652
     26 H6         24.6193   15.0035   61.1526 H           1 MOL       0.0674
     27 H7         27.2155   13.4260   61.0683 H           1 MOL       0.0840
     28 H8         27.1471   15.0992   60.5608 H           1 MOL       0.0840
     29 H9         21.6537   17.3003   59.7275 H           1 MOL       0.0467
     30 H10        22.9915   16.1533   59.6193 H           1 MOL       0.0467
     31 H11        23.2281   17.8498   59.1585 H           1 MOL       0.0467
     32 H12        25.0326   17.4014   60.7191 H           1 MOL       0.1858
     33 H13        24.0390   19.5351   63.9719 H           1 MOL       0.2127
     34 H14        26.7333   14.6895   64.6027 H           1 MOL       0.2100
     35 H15        24.4287   12.8220   61.1838 H           1 MOL       0.2101
     36 H16        26.8690   13.6170   58.7526 H           1 MOL       0.1995
     37 H17        25.4983   14.5356   58.9708 H           1 MOL       0.1995
     38 H18        25.5134   12.9536   59.4439 H           1 MOL       0.1995
@<TRIPOS>BOND
     1     1    14  ar
     2     1    13  ar
     3     1     2   1
     4     2    16   1
     5     2     3   2
     6     3     4   1
     7     4    15   1
     8     4     5   1
     9     5    12   1
    10     5     6   1
    11     6    16   1
    12     6     7   1
    13     7    17   1
    14     7     8   1
    15     8    18   1
    16     8     9   1
    17     9    19   1
    18    12    10  am
    19    10    20   2
    20    10    11   1
    21     3    21   1
    22     4    22   1
    23     5    23   1
    24     6    24   1
    25     7    25   1
    26     8    26   1
    27     9    27   1
    28     9    28   1
    29    11    29   1
    30    11    30   1
    31    11    31   1
    32    12    32   1
    33    15    33   1
    34    17    34   1
    35    18    35   1
    36    19    36   1
    37    19    37   1
    38    19    38   1
@<TRIPOS>SUBSTRUCTURE
     1  MOL      1

