@<TRIPOS>MOLECULE
1f8d_ligand_040
    38    38
SMALL
GAST_HUCK
****
This file was generated by PARSER (from files_GN.cpp)

@<TRIPOS>ATOM
      1 C1         25.8504   14.8801   62.4592 C.2         1 MOL       0.0809
      2 C2         25.7282   16.0978   63.1034 C.2         1 MOL       0.1088
      3 C3         24.5558   16.5190   63.6215 C.2         1 MOL      -0.0276
      4 C4         24.4768   17.6777   64.4918 C.3         1 MOL       0.1003
      5 C5         25.6351   18.6969   64.2790 C.3         1 MOL       0.1064
      6 C6         26.9782   17.9149   64.1083 C.3         1 MOL       0.1322
      7 C7         28.2523   18.7695   63.7990 C.3         1 MOL       0.1183
      8 C8         28.4377   19.4399   62.3950 C.3         1 MOL       0.1232
      9 C9         28.2121   18.5370   61.1431 C.3         1 MOL      -0.0062
     10 C10        25.1641   20.7566   65.5540 C.2         1 MOL       0.1734
     11 C11        25.2992   21.4442   66.8206 C.3         1 MOL       0.0257
     12 N5         25.6828   19.5509   65.4273 N.am        1 MOL      -0.2770
     13 O1A        25.2222   14.6410   61.2727 O.co2       1 MOL      -0.5623
     14 O1B        26.6721   13.9203   62.9453 O.co2       1 MOL      -0.5623
     15 O4         23.2070   18.3288   64.3472 O.3         1 MOL      -0.3807
     16 O6         26.8464   16.8618   63.1281 O.3         1 MOL      -0.3189
     17 O7         28.3515   19.7880   64.7897 O.3         1 MOL      -0.3860
     18 O8         27.7128   20.6677   62.2810 O.3         1 MOL      -0.3838
     19 N9         26.8457   18.5793   60.5846 N.4         1 MOL       0.2204
     20 O10        24.5688   21.2944   64.6313 O.2         1 MOL      -0.3974
     21 H1         23.7574   15.9112   63.5903 H           1 MOL       0.0480
     22 H2         24.5107   17.2917   65.5134 H           1 MOL       0.0740
     23 H3         25.4328   19.2367   63.3493 H           1 MOL       0.0632
     24 H4         27.1799   17.4010   65.0581 H           1 MOL       0.0697
     25 H5         29.1172   18.1085   63.9539 H           1 MOL       0.0652
     26 H6         29.4999   19.7144   62.3483 H           1 MOL       0.0674
     27 H7         28.4691   17.4955   61.3668 H           1 MOL       0.0840
     28 H8         28.8756   18.8800   60.3371 H           1 MOL       0.0840
     29 H9         24.8644   22.4437   66.7797 H           1 MOL       0.0467
     30 H10        26.3602   21.5348   67.0775 H           1 MOL       0.0467
     31 H11        24.7876   20.8731   67.6005 H           1 MOL       0.0467
     32 H12        26.1036   19.1698   66.2171 H           1 MOL       0.1858
     33 H13        23.2357   18.7956   63.4795 H           1 MOL       0.2127
     34 H14        29.2900   20.0763   64.7820 H           1 MOL       0.2100
     35 H15        28.2280   21.1953   61.6235 H           1 MOL       0.2101
     36 H16        26.8508   18.0795   59.6858 H           1 MOL       0.1995
     37 H17        26.5641   19.5557   60.4258 H           1 MOL       0.1995
     38 H18        26.1869   18.1221   61.2144 H           1 MOL       0.1995
@<TRIPOS>BOND
     1     1    14  ar
     2     1    13  ar
     3     1     2   1
     4     2    16   1
     5     2     3   2
     6     3     4   1
     7     4    15   1
     8     4     5   1
     9     5    12   1
    10     5     6   1
    11     6    16   1
    12     6     7   1
    13     7    17   1
    14     7     8   1
    15     8    18   1
    16     8     9   1
    17     9    19   1
    18    12    10  am
    19    10    20   2
    20    10    11   1
    21     3    21   1
    22     4    22   1
    23     5    23   1
    24     6    24   1
    25     7    25   1
    26     8    26   1
    27     9    27   1
    28     9    28   1
    29    11    29   1
    30    11    30   1
    31    11    31   1
    32    12    32   1
    33    15    33   1
    34    17    34   1
    35    18    35   1
    36    19    36   1
    37    19    37   1
    38    19    38   1
@<TRIPOS>SUBSTRUCTURE
     1  MOL      1

