@<TRIPOS>MOLECULE
1f8d_ligand_007
    38    38
SMALL
GAST_HUCK
****
This file was generated by PARSER (from files_GN.cpp)

@<TRIPOS>ATOM
      1 C1         23.4418   19.9911   65.1351 C.2         1 MOL       0.0809
      2 C2         23.8118   19.2061   66.2178 C.2         1 MOL       0.1088
      3 C3         25.0928   19.1537   66.6534 C.2         1 MOL      -0.0276
      4 C4         25.4741   18.4361   67.8553 C.3         1 MOL       0.1003
      5 C5         24.3805   17.4620   68.3842 C.3         1 MOL       0.1064
      6 C6         22.9717   18.1071   68.2045 C.3         1 MOL       0.1322
      7 C7         21.8009   17.1721   68.6952 C.3         1 MOL       0.1183
      8 C8         20.6993   17.8995   69.5302 C.3         1 MOL       0.1232
      9 C9         19.5859   18.5930   68.7028 C.3         1 MOL      -0.0062
     10 C10        24.8766   15.9612   70.2893 C.2         1 MOL       0.1734
     11 C11        25.0873   15.8676   71.7143 C.3         1 MOL       0.0257
     12 N5         24.6513   17.1572   69.7635 N.am        1 MOL      -0.2770
     13 O1A        24.2822   20.8859   64.5534 O.co2       1 MOL      -0.5623
     14 O1B        22.1908   19.8954   64.6224 O.co2       1 MOL      -0.5623
     15 O4         26.6845   17.7100   67.6405 O.3         1 MOL      -0.3807
     16 O6         22.8207   18.4812   66.8052 O.3         1 MOL      -0.3189
     17 O7         21.2191   16.4338   67.6187 O.3         1 MOL      -0.3860
     18 O8         20.0796   16.9679   70.4204 O.3         1 MOL      -0.3838
     19 N9         18.7192   19.3982   69.5720 N.4         1 MOL       0.2204
     20 O10        24.8882   14.9414   69.6116 O.2         1 MOL      -0.3974
     21 H1         25.7925   19.7099   66.2168 H           1 MOL       0.0480
     22 H2         25.6847   19.1963   68.6135 H           1 MOL       0.0740
     23 H3         24.3963   16.5602   67.7646 H           1 MOL       0.0632
     24 H4         22.9630   19.0345   68.7892 H           1 MOL       0.0697
     25 H5         22.2192   16.4186   69.3609 H           1 MOL       0.0652
     26 H6         21.1781   18.6494   70.1654 H           1 MOL       0.0674
     27 H7         18.9717   17.8408   68.1980 H           1 MOL       0.0840
     28 H8         20.0266   19.2474   67.9493 H           1 MOL       0.0840
     29 H9         25.2393   14.8332   72.0310 H           1 MOL       0.0467
     30 H10        24.2173   16.2642   72.2403 H           1 MOL       0.0467
     31 H11        25.9673   16.4487   71.9929 H           1 MOL       0.0467
     32 H12        24.6537   17.9085   70.3780 H           1 MOL       0.1858
     33 H13        26.4567   16.9909   67.0128 H           1 MOL       0.2127
     34 H14        21.9306   15.8519   67.2787 H           1 MOL       0.2100
     35 H15        19.6562   16.3018   69.8410 H           1 MOL       0.2101
     36 H16        17.9663   19.8025   69.0135 H           1 MOL       0.1995
     37 H17        19.2701   20.1475   69.9927 H           1 MOL       0.1995
     38 H18        18.3201   18.8125   70.3133 H           1 MOL       0.1995
@<TRIPOS>BOND
     1     1    14  ar
     2     1    13  ar
     3     1     2   1
     4     2    16   1
     5     2     3   2
     6     3     4   1
     7     4    15   1
     8     4     5   1
     9     5    12   1
    10     5     6   1
    11     6    16   1
    12     6     7   1
    13     7    17   1
    14     7     8   1
    15     8    18   1
    16     8     9   1
    17     9    19   1
    18    12    10  am
    19    10    20   2
    20    10    11   1
    21     3    21   1
    22     4    22   1
    23     5    23   1
    24     6    24   1
    25     7    25   1
    26     8    26   1
    27     9    27   1
    28     9    28   1
    29    11    29   1
    30    11    30   1
    31    11    31   1
    32    12    32   1
    33    15    33   1
    34    17    34   1
    35    18    35   1
    36    19    36   1
    37    19    37   1
    38    19    38   1
@<TRIPOS>SUBSTRUCTURE
     1  MOL      1

