@<TRIPOS>MOLECULE
1f8d_ligand_064
    38    38
SMALL
GAST_HUCK
****
This file was generated by PARSER (from files_GN.cpp)

@<TRIPOS>ATOM
      1 C1         23.7960   19.8041   64.7201 C.2         1 MOL       0.0809
      2 C2         25.0301   19.7319   65.3180 C.2         1 MOL       0.1088
      3 C3         25.6711   18.5617   65.5069 C.2         1 MOL      -0.0276
      4 C4         26.9942   18.4749   66.1216 C.3         1 MOL       0.1003
      5 C5         27.6286   19.8575   66.4945 C.3         1 MOL       0.1064
      6 C6         26.5243   20.9313   66.7648 C.3         1 MOL       0.1322
      7 C7         25.8540   20.8836   68.1872 C.3         1 MOL       0.1183
      8 C8         24.6091   21.8080   68.4006 C.3         1 MOL       0.1232
      9 C9         24.8157   23.2754   67.9461 C.3         1 MOL      -0.0062
     10 C10        29.6816   20.6850   65.3743 C.2         1 MOL       0.1734
     11 C11        30.2539   21.1381   64.1317 C.3         1 MOL       0.0257
     12 N5         28.4091   20.3211   65.3777 N.am        1 MOL      -0.2770
     13 O1A        23.4306   20.9061   64.0303 O.co2       1 MOL      -0.5623
     14 O1B        22.8343   18.9035   65.0093 O.co2       1 MOL      -0.5623
     15 O4         26.9221   17.6508   67.2857 O.3         1 MOL      -0.3807
     16 O6         25.5962   20.9066   65.6518 O.3         1 MOL      -0.3189
     17 O7         25.4920   19.5619   68.5947 O.3         1 MOL      -0.3860
     18 O8         23.4446   21.2621   67.7790 O.3         1 MOL      -0.3838
     19 N9         23.7203   24.1510   68.3655 N.4         1 MOL       0.2204
     20 O10        30.3692   20.6700   66.3889 O.2         1 MOL      -0.3974
     21 H1         25.2495   17.7077   65.2153 H           1 MOL       0.0480
     22 H2         27.6617   17.9506   65.4295 H           1 MOL       0.0740
     23 H3         28.2533   19.7523   67.3904 H           1 MOL       0.0632
     24 H4         27.0108   21.9094   66.7184 H           1 MOL       0.0697
     25 H5         26.6180   21.2012   68.9018 H           1 MOL       0.0652
     26 H6         24.3982   21.8181   69.4756 H           1 MOL       0.0674
     27 H7         24.8907   23.3278   66.8599 H           1 MOL       0.0840
     28 H8         25.7400   23.6592   68.3850 H           1 MOL       0.0840
     29 H9         31.2974   21.4415   64.2523 H           1 MOL       0.0467
     30 H10        29.6861   21.9924   63.7581 H           1 MOL       0.0467
     31 H11        30.2110   20.3370   63.3913 H           1 MOL       0.0467
     32 H12        27.9390   20.3964   64.5319 H           1 MOL       0.1858
     33 H13        26.6841   16.7574   66.9574 H           1 MOL       0.2127
     34 H14        24.7920   19.2732   67.9749 H           1 MOL       0.2100
     35 H15        23.6141   21.3056   66.8172 H           1 MOL       0.2101
     36 H16        23.9092   25.1001   68.0432 H           1 MOL       0.1995
     37 H17        23.6485   24.1490   69.3862 H           1 MOL       0.1995
     38 H18        22.8433   23.8241   67.9632 H           1 MOL       0.1995
@<TRIPOS>BOND
     1     1    14  ar
     2     1    13  ar
     3     1     2   1
     4     2    16   1
     5     2     3   2
     6     3     4   1
     7     4    15   1
     8     4     5   1
     9     5    12   1
    10     5     6   1
    11     6    16   1
    12     6     7   1
    13     7    17   1
    14     7     8   1
    15     8    18   1
    16     8     9   1
    17     9    19   1
    18    12    10  am
    19    10    20   2
    20    10    11   1
    21     3    21   1
    22     4    22   1
    23     5    23   1
    24     6    24   1
    25     7    25   1
    26     8    26   1
    27     9    27   1
    28     9    28   1
    29    11    29   1
    30    11    30   1
    31    11    31   1
    32    12    32   1
    33    15    33   1
    34    17    34   1
    35    18    35   1
    36    19    36   1
    37    19    37   1
    38    19    38   1
@<TRIPOS>SUBSTRUCTURE
     1  MOL      1

