@<TRIPOS>MOLECULE
1f8d_ligand_048
    38    38
SMALL
GAST_HUCK
****
This file was generated by PARSER (from files_GN.cpp)

@<TRIPOS>ATOM
      1 C1         27.9582   14.2187   61.2003 C.2         1 MOL       0.0809
      2 C2         27.7967   15.0855   62.2568 C.2         1 MOL       0.1088
      3 C3         28.8218   15.5515   62.9977 C.2         1 MOL      -0.0276
      4 C4         28.5730   16.4467   64.0983 C.3         1 MOL       0.1003
      5 C5         27.3845   17.4303   63.8362 C.3         1 MOL       0.1064
      6 C6         26.2871   16.8094   62.8823 C.3         1 MOL       0.1322
      7 C7         24.8001   16.9485   63.3716 C.3         1 MOL       0.1183
      8 C8         23.8109   17.6006   62.3494 C.3         1 MOL       0.1232
      9 C9         23.4348   16.7770   61.0826 C.3         1 MOL      -0.0062
     10 C10        28.1617   19.7992   63.8258 C.2         1 MOL       0.1734
     11 C11        28.6622   20.8948   63.0172 C.3         1 MOL       0.0257
     12 N5         27.8915   18.6422   63.2369 N.am        1 MOL      -0.2770
     13 O1A        28.4454   12.9564   61.3714 O.co2       1 MOL      -0.5623
     14 O1B        27.4623   14.5442   59.9750 O.co2       1 MOL      -0.5623
     15 O4         28.3222   15.6718   65.2662 O.3         1 MOL      -0.3807
     16 O6         26.5245   15.4155   62.5925 O.3         1 MOL      -0.3189
     17 O7         24.2661   15.7017   63.8320 O.3         1 MOL      -0.3860
     18 O8         22.6046   17.9635   63.0231 O.3         1 MOL      -0.3838
     19 N9         24.5209   16.6780   60.1019 N.4         1 MOL       0.2204
     20 O10        28.0225   19.9619   65.0327 O.2         1 MOL      -0.3974
     21 H1         29.7651   15.3309   62.7518 H           1 MOL       0.0480
     22 H2         29.4777   17.0168   64.2987 H           1 MOL       0.0740
     23 H3         26.9471   17.6534   64.8147 H           1 MOL       0.0632
     24 H4         26.3576   17.3246   61.9157 H           1 MOL       0.0697
     25 H5         24.7823   17.6105   64.2410 H           1 MOL       0.0652
     26 H6         24.2739   18.5304   62.0225 H           1 MOL       0.0674
     27 H7         22.5965   17.2709   60.5883 H           1 MOL       0.0840
     28 H8         23.1138   15.7762   61.3687 H           1 MOL       0.0840
     29 H9         28.8840   21.7799   63.6238 H           1 MOL       0.0467
     30 H10        27.9117   21.1709   62.2713 H           1 MOL       0.0467
     31 H11        29.5818   20.5994   62.5016 H           1 MOL       0.0467
     32 H12        28.1038   18.5934   62.2875 H           1 MOL       0.1858
     33 H13        27.3506   15.6757   65.4148 H           1 MOL       0.2127
     34 H14        24.4870   15.0422   63.1368 H           1 MOL       0.2100
     35 H15        22.0583   17.1489   63.0736 H           1 MOL       0.2101
     36 H16        24.1908   16.2101   59.2628 H           1 MOL       0.1995
     37 H17        25.2910   16.1442   60.4940 H           1 MOL       0.1995
     38 H18        24.8327   17.6162   59.8545 H           1 MOL       0.1995
@<TRIPOS>BOND
     1     1    14  ar
     2     1    13  ar
     3     1     2   1
     4     2    16   1
     5     2     3   2
     6     3     4   1
     7     4    15   1
     8     4     5   1
     9     5    12   1
    10     5     6   1
    11     6    16   1
    12     6     7   1
    13     7    17   1
    14     7     8   1
    15     8    18   1
    16     8     9   1
    17     9    19   1
    18    12    10  am
    19    10    20   2
    20    10    11   1
    21     3    21   1
    22     4    22   1
    23     5    23   1
    24     6    24   1
    25     7    25   1
    26     8    26   1
    27     9    27   1
    28     9    28   1
    29    11    29   1
    30    11    30   1
    31    11    31   1
    32    12    32   1
    33    15    33   1
    34    17    34   1
    35    18    35   1
    36    19    36   1
    37    19    37   1
    38    19    38   1
@<TRIPOS>SUBSTRUCTURE
     1  MOL      1

