@<TRIPOS>MOLECULE
1f8d_ligand_006
    38    38
SMALL
GAST_HUCK
****
This file was generated by PARSER (from files_GN.cpp)

@<TRIPOS>ATOM
      1 C1         24.1118   19.6202   64.6655 C.2         1 MOL       0.0809
      2 C2         25.3027   18.9410   64.4819 C.2         1 MOL       0.1088
      3 C3         26.4966   19.5738   64.4405 C.2         1 MOL      -0.0276
      4 C4         27.7430   18.8797   64.1822 C.3         1 MOL       0.1003
      5 C5         27.6165   17.3152   64.1031 C.3         1 MOL       0.1064
      6 C6         26.1975   16.9079   63.5723 C.3         1 MOL       0.1322
      7 C7         25.9569   17.1475   62.0363 C.3         1 MOL       0.1183
      8 C8         26.4524   16.0166   61.0691 C.3         1 MOL       0.1232
      9 C9         27.0013   16.5298   59.7080 C.3         1 MOL      -0.0062
     10 C10        28.9830   16.5824   66.0262 C.2         1 MOL       0.1734
     11 C11        29.0004   15.9840   67.3415 C.3         1 MOL       0.0257
     12 N5         27.8237   16.7219   65.3969 N.am        1 MOL      -0.2770
     13 O1A        23.9331   20.8813   64.2087 O.co2       1 MOL      -0.5623
     14 O1B        23.0720   19.0301   65.3031 O.co2       1 MOL      -0.5623
     15 O4         28.2862   19.3833   62.9622 O.3         1 MOL      -0.3807
     16 O6         25.2234   17.5929   64.3966 O.3         1 MOL      -0.3189
     17 O7         24.5494   17.3316   61.8310 O.3         1 MOL      -0.3860
     18 O8         27.4735   15.2109   61.6688 O.3         1 MOL      -0.3838
     19 N9         25.9628   17.0642   58.8190 N.4         1 MOL       0.2204
     20 O10        30.0373   16.9501   65.5228 O.2         1 MOL      -0.3974
     21 H1         26.5370   20.5595   64.5570 H           1 MOL       0.0480
     22 H2         28.4485   19.1573   64.9695 H           1 MOL       0.0740
     23 H3         28.3809   16.9216   63.4280 H           1 MOL       0.0632
     24 H4         26.0356   15.8416   63.7559 H           1 MOL       0.0697
     25 H5         26.4292   18.0929   61.7652 H           1 MOL       0.0652
     26 H6         25.6181   15.3373   60.8692 H           1 MOL       0.0674
     27 H7         27.4882   15.7086   59.1778 H           1 MOL       0.0840
     28 H8         27.7475   17.3056   59.8815 H           1 MOL       0.0840
     29 H9         30.0173   15.9224   67.7405 H           1 MOL       0.0467
     30 H10        28.5860   14.9749   67.3032 H           1 MOL       0.0467
     31 H11        28.3992   16.5845   68.0269 H           1 MOL       0.0467
     32 H12        27.0425   16.3741   65.8510 H           1 MOL       0.1858
     33 H13        28.5045   20.3250   63.1405 H           1 MOL       0.2127
     34 H14        24.4616   18.0046   61.1250 H           1 MOL       0.2100
     35 H15        27.5874   14.4379   61.0710 H           1 MOL       0.2101
     36 H16        26.3849   17.3283   57.9281 H           1 MOL       0.1995
     37 H17        25.5309   17.8911   59.2388 H           1 MOL       0.1995
     38 H18        25.2474   16.3553   58.6512 H           1 MOL       0.1995
@<TRIPOS>BOND
     1     1    14  ar
     2     1    13  ar
     3     1     2   1
     4     2    16   1
     5     2     3   2
     6     3     4   1
     7     4    15   1
     8     4     5   1
     9     5    12   1
    10     5     6   1
    11     6    16   1
    12     6     7   1
    13     7    17   1
    14     7     8   1
    15     8    18   1
    16     8     9   1
    17     9    19   1
    18    12    10  am
    19    10    20   2
    20    10    11   1
    21     3    21   1
    22     4    22   1
    23     5    23   1
    24     6    24   1
    25     7    25   1
    26     8    26   1
    27     9    27   1
    28     9    28   1
    29    11    29   1
    30    11    30   1
    31    11    31   1
    32    12    32   1
    33    15    33   1
    34    17    34   1
    35    18    35   1
    36    19    36   1
    37    19    37   1
    38    19    38   1
@<TRIPOS>SUBSTRUCTURE
     1  MOL      1

