@<TRIPOS>MOLECULE
1f8d_ligand_038
    38    38
SMALL
GAST_HUCK
****
This file was generated by PARSER (from files_GN.cpp)

@<TRIPOS>ATOM
      1 C1         28.2696   14.1293   60.8803 C.2         1 MOL       0.0809
      2 C2         27.9500   15.4097   60.4907 C.2         1 MOL       0.1088
      3 C3         28.3872   16.5095   61.1358 C.2         1 MOL      -0.0276
      4 C4         28.0283   17.8466   60.7053 C.3         1 MOL       0.1003
      5 C5         27.0905   17.9121   59.4426 C.3         1 MOL       0.1064
      6 C6         26.2764   16.5842   59.2684 C.3         1 MOL       0.1322
      7 C7         24.9780   16.4187   60.1459 C.3         1 MOL       0.1183
      8 C8         24.6247   14.9523   60.5496 C.3         1 MOL       0.1232
      9 C9         23.0990   14.7295   60.8061 C.3         1 MOL      -0.0062
     10 C10        28.1910   19.1711   57.5974 C.2         1 MOL       0.1734
     11 C11        29.0330   19.0715   56.4258 C.3         1 MOL       0.0257
     12 N5         27.9023   18.0581   58.2572 N.am        1 MOL      -0.2770
     13 O1A        28.6348   13.2009   59.9521 O.co2       1 MOL      -0.5623
     14 O1B        28.0413   13.7010   62.1540 O.co2       1 MOL      -0.5623
     15 O4         27.4297   18.5053   61.8181 O.3         1 MOL      -0.3807
     16 O6         27.2315   15.5161   59.3444 O.3         1 MOL      -0.3189
     17 O7         24.9997   17.1901   61.3355 O.3         1 MOL      -0.3860
     18 O8         25.0698   14.0176   59.5475 O.3         1 MOL      -0.3838
     19 N9         22.8320   13.4878   61.5412 N.4         1 MOL       0.2204
     20 O10        27.7574   20.2569   57.9627 O.2         1 MOL      -0.3974
     21 H1         28.9757   16.3979   61.9359 H           1 MOL       0.0480
     22 H2         28.9621   18.3760   60.5020 H           1 MOL       0.0740
     23 H3         26.4081   18.7605   59.5192 H           1 MOL       0.0632
     24 H4         25.9221   16.5620   58.2329 H           1 MOL       0.0697
     25 H5         24.1483   16.8120   59.5602 H           1 MOL       0.0652
     26 H6         25.1470   14.7152   61.4800 H           1 MOL       0.0674
     27 H7         22.5736   14.6995   59.8433 H           1 MOL       0.0840
     28 H8         22.7020   15.5603   61.3957 H           1 MOL       0.0840
     29 H9         29.1891   20.0402   55.9585 H           1 MOL       0.0467
     30 H10        28.5691   18.4053   55.6972 H           1 MOL       0.0467
     31 H11        30.0059   18.6715   56.7065 H           1 MOL       0.0467
     32 H12        28.2563   17.2389   57.8827 H           1 MOL       0.1858
     33 H13        27.3657   19.4473   61.5611 H           1 MOL       0.2127
     34 H14        24.7905   18.1018   61.0490 H           1 MOL       0.2100
     35 H15        24.4142   13.2649   59.5364 H           1 MOL       0.2101
     36 H16        21.8267   13.3060   61.5381 H           1 MOL       0.1995
     37 H17        23.1567   13.5864   62.5049 H           1 MOL       0.1995
     38 H18        23.3167   12.7073   61.0958 H           1 MOL       0.1995
@<TRIPOS>BOND
     1     1    14  ar
     2     1    13  ar
     3     1     2   1
     4     2    16   1
     5     2     3   2
     6     3     4   1
     7     4    15   1
     8     4     5   1
     9     5    12   1
    10     5     6   1
    11     6    16   1
    12     6     7   1
    13     7    17   1
    14     7     8   1
    15     8    18   1
    16     8     9   1
    17     9    19   1
    18    12    10  am
    19    10    20   2
    20    10    11   1
    21     3    21   1
    22     4    22   1
    23     5    23   1
    24     6    24   1
    25     7    25   1
    26     8    26   1
    27     9    27   1
    28     9    28   1
    29    11    29   1
    30    11    30   1
    31    11    31   1
    32    12    32   1
    33    15    33   1
    34    17    34   1
    35    18    35   1
    36    19    36   1
    37    19    37   1
    38    19    38   1
@<TRIPOS>SUBSTRUCTURE
     1  MOL      1

