@<TRIPOS>MOLECULE
1f8d_ligand_016
    38    38
SMALL
GAST_HUCK
****
This file was generated by PARSER (from files_GN.cpp)

@<TRIPOS>ATOM
      1 C1         25.6368   20.0365   64.0307 C.2         1 MOL       0.0809
      2 C2         25.1508   18.8065   63.6111 C.2         1 MOL       0.1088
      3 C3         23.9268   18.3595   63.9614 C.2         1 MOL      -0.0276
      4 C4         23.3810   17.1062   63.4531 C.3         1 MOL       0.1003
      5 C5         24.4074   16.2323   62.6598 C.3         1 MOL       0.1064
      6 C6         25.3853   17.1659   61.8733 C.3         1 MOL       0.1322
      7 C7         26.5149   16.4292   61.0848 C.3         1 MOL       0.1183
      8 C8         27.3920   17.3302   60.1424 C.3         1 MOL       0.1232
      9 C9         27.1759   17.1142   58.6148 C.3         1 MOL      -0.0062
     10 C10        23.0742   15.3075   60.7719 C.2         1 MOL       0.1734
     11 C11        22.5233   14.1129   60.1861 C.3         1 MOL       0.0257
     12 N5         23.7813   15.1933   61.8914 N.am        1 MOL      -0.2770
     13 O1A        26.9406   20.3540   63.8403 O.co2       1 MOL      -0.5623
     14 O1B        24.8357   20.9950   64.5464 O.co2       1 MOL      -0.5623
     15 O4         22.8802   16.3707   64.5702 O.3         1 MOL      -0.3807
     16 O6         25.9874   18.0575   62.8488 O.3         1 MOL      -0.3189
     17 O7         27.3498   15.7319   62.0127 O.3         1 MOL      -0.3860
     18 O8         27.2779   18.7256   60.4339 O.3         1 MOL      -0.3838
     19 N9         25.7840   17.2453   58.1642 N.4         1 MOL       0.2204
     20 O10        22.8822   16.3892   60.2285 O.2         1 MOL      -0.3974
     21 H1         23.3220   18.9210   64.5213 H           1 MOL       0.0480
     22 H2         22.5413   17.3767   62.8042 H           1 MOL       0.0740
     23 H3         25.0196   15.7094   63.4057 H           1 MOL       0.0632
     24 H4         24.8111   17.7663   61.1588 H           1 MOL       0.0697
     25 H5         26.0444   15.6549   60.4755 H           1 MOL       0.0652
     26 H6         28.4433   17.0927   60.3244 H           1 MOL       0.0674
     27 H7         27.5167   16.1155   58.3372 H           1 MOL       0.0840
     28 H8         27.7801   17.8382   58.0585 H           1 MOL       0.0840
     29 H9         21.9494   14.3347   59.2834 H           1 MOL       0.0467
     30 H10        21.8625   13.6202   60.9029 H           1 MOL       0.0467
     31 H11        23.3312   13.4301   59.9204 H           1 MOL       0.0467
     32 H12        23.8847   14.2930   62.2373 H           1 MOL       0.1858
     33 H13        21.9457   16.1841   64.3540 H           1 MOL       0.2127
     34 H14        27.7898   16.4252   62.5490 H           1 MOL       0.2100
     35 H15        26.4001   18.9918   60.0925 H           1 MOL       0.2101
     36 H16        25.7651   17.3339   57.1402 H           1 MOL       0.1995
     37 H17        25.3529   18.0629   58.5946 H           1 MOL       0.1995
     38 H18        25.2549   16.4124   58.4278 H           1 MOL       0.1995
@<TRIPOS>BOND
     1     1    14  ar
     2     1    13  ar
     3     1     2   1
     4     2    16   1
     5     2     3   2
     6     3     4   1
     7     4    15   1
     8     4     5   1
     9     5    12   1
    10     5     6   1
    11     6    16   1
    12     6     7   1
    13     7    17   1
    14     7     8   1
    15     8    18   1
    16     8     9   1
    17     9    19   1
    18    12    10  am
    19    10    20   2
    20    10    11   1
    21     3    21   1
    22     4    22   1
    23     5    23   1
    24     6    24   1
    25     7    25   1
    26     8    26   1
    27     9    27   1
    28     9    28   1
    29    11    29   1
    30    11    30   1
    31    11    31   1
    32    12    32   1
    33    15    33   1
    34    17    34   1
    35    18    35   1
    36    19    36   1
    37    19    37   1
    38    19    38   1
@<TRIPOS>SUBSTRUCTURE
     1  MOL      1

