@<TRIPOS>MOLECULE
1f8d_ligand_057
    38    38
SMALL
GAST_HUCK
****
This file was generated by PARSER (from files_GN.cpp)

@<TRIPOS>ATOM
      1 C1         28.1720   18.7595   58.1358 C.2         1 MOL       0.0809
      2 C2         27.7847   18.7058   59.4569 C.2         1 MOL       0.1088
      3 C3         27.3096   19.8018   60.0799 C.2         1 MOL      -0.0276
      4 C4         26.8851   19.7755   61.4699 C.3         1 MOL       0.1003
      5 C5         26.6640   18.3379   62.0370 C.3         1 MOL       0.1064
      6 C6         27.7621   17.3678   61.4809 C.3         1 MOL       0.1322
      7 C7         29.2101   17.4708   62.0761 C.3         1 MOL       0.1183
      8 C8         29.4093   17.9123   63.5638 C.3         1 MOL       0.1232
      9 C9         28.6213   17.2030   64.7177 C.3         1 MOL      -0.0062
     10 C10        24.6499   16.9043   62.1852 C.2         1 MOL       0.1734
     11 C11        23.3821   16.5565   61.5801 C.3         1 MOL       0.0257
     12 N5         25.3687   17.8674   61.6271 N.am        1 MOL      -0.2770
     13 O1A        29.3745   19.3146   57.8640 O.co2       1 MOL      -0.5623
     14 O1B        27.2329   18.9158   57.1779 O.co2       1 MOL      -0.5623
     15 O4         27.8617   20.4697   62.2533 O.3         1 MOL      -0.3807
     16 O6         27.8153   17.4833   60.0359 O.3         1 MOL      -0.3189
     17 O7         29.8609   16.2095   61.8864 O.3         1 MOL      -0.3860
     18 O8         30.8154   17.8287   63.8365 O.3         1 MOL      -0.3838
     19 N9         27.6825   16.1516   64.3132 N.4         1 MOL       0.2204
     20 O10        25.0277   16.3129   63.1880 O.2         1 MOL      -0.3974
     21 H1         27.3094   20.6766   59.6092 H           1 MOL       0.0480
     22 H2         25.9515   20.3392   61.5547 H           1 MOL       0.0740
     23 H3         26.6786   18.3840   63.1295 H           1 MOL       0.0632
     24 H4         27.4286   16.3457   61.6594 H           1 MOL       0.0697
     25 H5         29.7655   18.1914   61.4667 H           1 MOL       0.0652
     26 H6         29.1749   18.9824   63.6194 H           1 MOL       0.0674
     27 H7         28.0344   17.9426   65.2623 H           1 MOL       0.0840
     28 H8         29.3130   16.7499   65.4326 H           1 MOL       0.0840
     29 H9         22.8892   15.7373   62.1163 H           1 MOL       0.0467
     30 H10        23.5435   16.2388   60.5430 H           1 MOL       0.0467
     31 H11        22.7197   17.4254   61.5848 H           1 MOL       0.0467
     32 H12        24.9814   18.2835   60.8438 H           1 MOL       0.1858
     33 H13        28.2965   21.1117   61.6479 H           1 MOL       0.2127
     34 H14        29.7411   15.9800   60.9414 H           1 MOL       0.2100
     35 H15        30.9508   18.3347   64.6647 H           1 MOL       0.2101
     36 H16        27.2263   15.7659   65.1535 H           1 MOL       0.1995
     37 H17        28.1939   15.4200   63.8084 H           1 MOL       0.1995
     38 H18        26.9590   16.5528   63.7145 H           1 MOL       0.1995
@<TRIPOS>BOND
     1     1    14  ar
     2     1    13  ar
     3     1     2   1
     4     2    16   1
     5     2     3   2
     6     3     4   1
     7     4    15   1
     8     4     5   1
     9     5    12   1
    10     5     6   1
    11     6    16   1
    12     6     7   1
    13     7    17   1
    14     7     8   1
    15     8    18   1
    16     8     9   1
    17     9    19   1
    18    12    10  am
    19    10    20   2
    20    10    11   1
    21     3    21   1
    22     4    22   1
    23     5    23   1
    24     6    24   1
    25     7    25   1
    26     8    26   1
    27     9    27   1
    28     9    28   1
    29    11    29   1
    30    11    30   1
    31    11    31   1
    32    12    32   1
    33    15    33   1
    34    17    34   1
    35    18    35   1
    36    19    36   1
    37    19    37   1
    38    19    38   1
@<TRIPOS>SUBSTRUCTURE
     1  MOL      1

