@<TRIPOS>MOLECULE
1f8d_ligand_001
    38    38
SMALL
GAST_HUCK
****
This file was generated by PARSER (from files_GN.cpp)

@<TRIPOS>ATOM
      1 C1         23.3161   19.5723   64.3593 C.2         1 MOL       0.0809
      2 C2         23.7741   18.3697   63.8848 C.2         1 MOL       0.1088
      3 C3         23.0908   17.5814   63.0295 C.2         1 MOL      -0.0276
      4 C4         23.7258   16.3685   62.5413 C.3         1 MOL       0.1003
      5 C5         25.2481   16.5945   62.2041 C.3         1 MOL       0.1064
      6 C6         25.9056   17.6676   63.1738 C.3         1 MOL       0.1322
      7 C7         27.3318   17.4283   63.8130 C.3         1 MOL       0.1183
      8 C8         27.9203   15.9684   63.8989 C.3         1 MOL       0.1232
      9 C9         29.1243   15.7055   62.9395 C.3         1 MOL      -0.0062
     10 C10        25.9409   16.4497   59.8229 C.2         1 MOL       0.1734
     11 C11        25.9224   17.1097   58.5388 C.3         1 MOL       0.0257
     12 N5         25.3444   17.0533   60.8437 N.am        1 MOL      -0.2770
     13 O1A        24.0665   20.6728   64.1284 O.co2       1 MOL      -0.5623
     14 O1B        22.0083   19.7798   64.6145 O.co2       1 MOL      -0.5623
     15 O4         23.5952   15.3813   63.5657 O.3         1 MOL      -0.3807
     16 O6         25.0066   17.9829   64.2712 O.3         1 MOL      -0.3189
     17 O7         28.2806   18.3224   63.2175 O.3         1 MOL      -0.3860
     18 O8         28.2990   15.6595   65.2455 O.3         1 MOL      -0.3838
     19 N9         30.4230   16.0134   63.5670 N.4         1 MOL       0.2204
     20 O10        26.4994   15.3664   59.9329 O.2         1 MOL      -0.3974
     21 H1         22.2149   17.8630   62.6572 H           1 MOL       0.0480
     22 H2         23.1898   15.9880   61.6626 H           1 MOL       0.0740
     23 H3         25.7275   15.6191   62.2858 H           1 MOL       0.0632
     24 H4         25.9859   18.6113   62.6110 H           1 MOL       0.0697
     25 H5         27.2668   17.7877   64.8486 H           1 MOL       0.0652
     26 H6         27.1453   15.2313   63.6778 H           1 MOL       0.0674
     27 H7         29.0307   16.3020   62.0256 H           1 MOL       0.0840
     28 H8         29.1519   14.6518   62.6446 H           1 MOL       0.0840
     29 H9         26.4243   16.5082   57.7786 H           1 MOL       0.0467
     30 H10        26.4333   18.0711   58.6173 H           1 MOL       0.0467
     31 H11        24.8901   17.2746   58.2254 H           1 MOL       0.0467
     32 H12        24.9149   17.9025   60.6527 H           1 MOL       0.1858
     33 H13        22.6523   15.4277   63.8331 H           1 MOL       0.2127
     34 H14        28.0567   19.2100   63.5716 H           1 MOL       0.2100
     35 H15        27.4428   15.6797   65.7262 H           1 MOL       0.2101
     36 H16        31.1706   15.9258   62.8702 H           1 MOL       0.1995
     37 H17        30.5898   15.3521   64.3316 H           1 MOL       0.1995
     38 H18        30.4202   16.9687   63.9397 H           1 MOL       0.1995
@<TRIPOS>BOND
     1     1    14  ar
     2     1    13  ar
     3     1     2   1
     4     2    16   1
     5     2     3   2
     6     3     4   1
     7     4    15   1
     8     4     5   1
     9     5    12   1
    10     5     6   1
    11     6    16   1
    12     6     7   1
    13     7    17   1
    14     7     8   1
    15     8    18   1
    16     8     9   1
    17     9    19   1
    18    12    10  am
    19    10    20   2
    20    10    11   1
    21     3    21   1
    22     4    22   1
    23     5    23   1
    24     6    24   1
    25     7    25   1
    26     8    26   1
    27     9    27   1
    28     9    28   1
    29    11    29   1
    30    11    30   1
    31    11    31   1
    32    12    32   1
    33    15    33   1
    34    17    34   1
    35    18    35   1
    36    19    36   1
    37    19    37   1
    38    19    38   1
@<TRIPOS>SUBSTRUCTURE
     1  MOL      1

