@<TRIPOS>MOLECULE
1f8d_ligand_054
    38    38
SMALL
GAST_HUCK
****
This file was generated by PARSER (from files_GN.cpp)

@<TRIPOS>ATOM
      1 C1         28.7848   15.5348   63.3936 C.2         1 MOL       0.0809
      2 C2         27.5779   15.5874   62.7654 C.2         1 MOL       0.1088
      3 C3         26.8477   14.4871   62.4854 C.2         1 MOL      -0.0276
      4 C4         25.6263   14.5188   61.7028 C.3         1 MOL       0.1003
      5 C5         25.1613   15.9539   61.2719 C.3         1 MOL       0.1064
      6 C6         26.4033   16.9270   61.1399 C.3         1 MOL       0.1322
      7 C7         27.2519   16.7343   59.8252 C.3         1 MOL       0.1183
      8 C8         27.4925   17.9942   58.8969 C.3         1 MOL       0.1232
      9 C9         26.8794   17.8325   57.4832 C.3         1 MOL      -0.0062
     10 C10        23.1719   17.1602   62.1135 C.2         1 MOL       0.1734
     11 C11        22.5499   17.7866   63.2567 C.3         1 MOL       0.0257
     12 N5         24.3030   16.4922   62.2836 N.am        1 MOL      -0.2770
     13 O1A        28.9459   16.1273   64.6162 O.co2       1 MOL      -0.5623
     14 O1B        29.8394   14.8853   62.8239 O.co2       1 MOL      -0.5623
     15 O4         25.8471   13.6911   60.5614 O.3         1 MOL      -0.3807
     16 O6         27.1757   16.8189   62.3603 O.3         1 MOL      -0.3189
     17 O7         28.5307   16.1631   60.1085 O.3         1 MOL      -0.3860
     18 O8         27.0539   19.2375   59.4501 O.3         1 MOL      -0.3838
     19 N9         25.4565   17.5145   57.5338 N.4         1 MOL       0.2204
     20 O10        22.6544   17.2843   61.0071 O.2         1 MOL      -0.3974
     21 H1         27.1687   13.5891   62.7960 H           1 MOL       0.0480
     22 H2         24.8364   14.0399   62.2966 H           1 MOL       0.0740
     23 H3         24.6532   15.9005   60.3040 H           1 MOL       0.0632
     24 H4         26.0154   17.9497   61.1559 H           1 MOL       0.0697
     25 H5         26.7889   15.9629   59.2134 H           1 MOL       0.0652
     26 H6         28.5612   18.1221   58.7522 H           1 MOL       0.0674
     27 H7         27.3975   17.0493   56.9269 H           1 MOL       0.0840
     28 H8         27.0157   18.7616   56.9191 H           1 MOL       0.0840
     29 H9         21.6007   18.2554   62.9892 H           1 MOL       0.0467
     30 H10        23.2091   18.5533   63.6725 H           1 MOL       0.0467
     31 H11        22.3567   17.0413   64.0305 H           1 MOL       0.0467
     32 H12        24.6511   16.4807   63.1900 H           1 MOL       0.1858
     33 H13        25.0571   13.1069   60.4843 H           1 MOL       0.2127
     34 H14        28.3663   15.1970   60.2083 H           1 MOL       0.2100
     35 H15        27.4390   19.9257   58.8332 H           1 MOL       0.2101
     36 H16        25.0730   17.5592   56.5874 H           1 MOL       0.1995
     37 H17        24.9722   18.1709   58.1514 H           1 MOL       0.1995
     38 H18        25.3070   16.5695   57.9002 H           1 MOL       0.1995
@<TRIPOS>BOND
     1     1    14  ar
     2     1    13  ar
     3     1     2   1
     4     2    16   1
     5     2     3   2
     6     3     4   1
     7     4    15   1
     8     4     5   1
     9     5    12   1
    10     5     6   1
    11     6    16   1
    12     6     7   1
    13     7    17   1
    14     7     8   1
    15     8    18   1
    16     8     9   1
    17     9    19   1
    18    12    10  am
    19    10    20   2
    20    10    11   1
    21     3    21   1
    22     4    22   1
    23     5    23   1
    24     6    24   1
    25     7    25   1
    26     8    26   1
    27     9    27   1
    28     9    28   1
    29    11    29   1
    30    11    30   1
    31    11    31   1
    32    12    32   1
    33    15    33   1
    34    17    34   1
    35    18    35   1
    36    19    36   1
    37    19    37   1
    38    19    38   1
@<TRIPOS>SUBSTRUCTURE
     1  MOL      1

