@<TRIPOS>MOLECULE
1f8d_ligand_034
    38    38
SMALL
GAST_HUCK
****
This file was generated by PARSER (from files_GN.cpp)

@<TRIPOS>ATOM
      1 C1         24.5463   15.5169   71.7285 C.2         1 MOL       0.0809
      2 C2         24.4974   16.4975   70.7493 C.2         1 MOL       0.1088
      3 C3         25.5531   16.7518   69.9475 C.2         1 MOL      -0.0276
      4 C4         25.5036   17.8361   68.9909 C.3         1 MOL       0.1003
      5 C5         24.0594   18.1500   68.4514 C.3         1 MOL       0.1064
      6 C6         22.9278   17.4018   69.2674 C.3         1 MOL       0.1322
      7 C7         21.5528   18.1501   69.2167 C.3         1 MOL       0.1183
      8 C8         20.2731   17.2700   69.2059 C.3         1 MOL       0.1232
      9 C9         18.9478   18.0491   68.9242 C.3         1 MOL      -0.0062
     10 C10        23.4660   18.4551   66.0413 C.2         1 MOL       0.1734
     11 C11        23.3743   17.8108   64.7533 C.3         1 MOL       0.0257
     12 N5         23.9558   17.7609   67.0719 N.am        1 MOL      -0.2770
     13 O1A        24.1635   14.2495   71.4114 O.co2       1 MOL      -0.5623
     14 O1B        24.5834   15.8752   73.0439 O.co2       1 MOL      -0.5623
     15 O4         26.0487   18.9690   69.6548 O.3         1 MOL      -0.3807
     16 O6         23.3473   17.2096   70.6425 O.3         1 MOL      -0.3189
     17 O7         21.4825   19.0732   70.3082 O.3         1 MOL      -0.3860
     18 O8         20.4245   16.2621   68.2156 O.3         1 MOL      -0.3838
     19 N9         19.0842   19.4510   68.4838 N.4         1 MOL       0.2204
     20 O10        23.0009   19.5843   66.1785 O.2         1 MOL      -0.3974
     21 H1         26.4052   16.2386   70.0811 H           1 MOL       0.0480
     22 H2         26.1735   17.5835   68.1741 H           1 MOL       0.0740
     23 H3         23.8989   19.2284   68.5457 H           1 MOL       0.0632
     24 H4         22.7967   16.4134   68.8112 H           1 MOL       0.0697
     25 H5         21.5306   18.7475   68.2970 H           1 MOL       0.0652
     26 H6         20.1755   16.7728   70.1626 H           1 MOL       0.0674
     27 H7         18.3343   18.0745   69.8301 H           1 MOL       0.0840
     28 H8         18.3629   17.5462   68.1530 H           1 MOL       0.0840
     29 H9         22.8896   18.4525   64.0126 H           1 MOL       0.0467
     30 H10        22.7893   16.8932   64.8435 H           1 MOL       0.0467
     31 H11        24.3727   17.5591   64.3936 H           1 MOL       0.0467
     32 H12        24.2241   16.8543   66.8531 H           1 MOL       0.1858
     33 H13        26.2015   19.6385   68.9517 H           1 MOL       0.2127
     34 H14        21.4411   18.5225   71.1187 H           1 MOL       0.2100
     35 H15        20.8542   15.4925   68.6778 H           1 MOL       0.2101
     36 H16        18.1615   19.8419   68.2835 H           1 MOL       0.1995
     37 H17        19.6719   19.5099   67.6453 H           1 MOL       0.1995
     38 H18        19.5101   20.0082   69.2388 H           1 MOL       0.1995
@<TRIPOS>BOND
     1     1    14  ar
     2     1    13  ar
     3     1     2   1
     4     2    16   1
     5     2     3   2
     6     3     4   1
     7     4    15   1
     8     4     5   1
     9     5    12   1
    10     5     6   1
    11     6    16   1
    12     6     7   1
    13     7    17   1
    14     7     8   1
    15     8    18   1
    16     8     9   1
    17     9    19   1
    18    12    10  am
    19    10    20   2
    20    10    11   1
    21     3    21   1
    22     4    22   1
    23     5    23   1
    24     6    24   1
    25     7    25   1
    26     8    26   1
    27     9    27   1
    28     9    28   1
    29    11    29   1
    30    11    30   1
    31    11    31   1
    32    12    32   1
    33    15    33   1
    34    17    34   1
    35    18    35   1
    36    19    36   1
    37    19    37   1
    38    19    38   1
@<TRIPOS>SUBSTRUCTURE
     1  MOL      1

