@<TRIPOS>MOLECULE
1f8d_ligand_005
    38    38
SMALL
GAST_HUCK
****
This file was generated by PARSER (from files_GN.cpp)

@<TRIPOS>ATOM
      1 C1         24.0006   19.7701   64.4918 C.2         1 MOL       0.0809
      2 C2         25.1412   19.0719   64.1519 C.2         1 MOL       0.1088
      3 C3         25.5854   18.0195   64.8769 C.2         1 MOL      -0.0276
      4 C4         26.7782   17.2715   64.5184 C.3         1 MOL       0.1003
      5 C5         27.6248   17.9318   63.3839 C.3         1 MOL       0.1064
      6 C6         26.6395   18.5669   62.3459 C.3         1 MOL       0.1322
      7 C7         27.3256   19.3112   61.1443 C.3         1 MOL       0.1183
      8 C8         27.8873   18.4574   59.9499 C.3         1 MOL       0.1232
      9 C9         27.1666   17.1166   59.5902 C.3         1 MOL      -0.0062
     10 C10        29.8129   16.9958   62.7068 C.2         1 MOL       0.1734
     11 C11        30.5007   15.8836   62.0967 C.3         1 MOL       0.0257
     12 N5         28.4945   16.9348   62.8240 N.am        1 MOL      -0.2770
     13 O1A        23.8378   21.0461   64.0705 O.co2       1 MOL      -0.5623
     14 O1B        22.9506   19.2152   65.1497 O.co2       1 MOL      -0.5623
     15 O4         27.6007   17.1002   65.6699 O.3         1 MOL      -0.3807
     16 O6         25.8393   19.5344   63.0855 O.3         1 MOL      -0.3189
     17 O7         26.3878   20.2679   60.6430 O.3         1 MOL      -0.3860
     18 O8         27.9837   19.2680   58.7729 O.3         1 MOL      -0.3838
     19 N9         25.9990   17.2832   58.7024 N.4         1 MOL       0.2204
     20 O10        30.4526   17.9790   63.0570 O.2         1 MOL      -0.3974
     21 H1         25.0500   17.6863   65.6556 H           1 MOL       0.0480
     22 H2         26.4398   16.2782   64.1865 H           1 MOL       0.0740
     23 H3         28.2053   18.7542   63.8247 H           1 MOL       0.0632
     24 H4         25.9803   17.7983   61.9370 H           1 MOL       0.0697
     25 H5         28.1685   19.8954   61.5499 H           1 MOL       0.0652
     26 H6         28.9296   18.2078   60.1810 H           1 MOL       0.0674
     27 H7         26.8407   16.5966   60.4823 H           1 MOL       0.0840
     28 H8         27.8863   16.4668   59.0675 H           1 MOL       0.0840
     29 H9         31.5700   16.0724   62.0106 H           1 MOL       0.0467
     30 H10        30.0995   15.7043   61.0936 H           1 MOL       0.0467
     31 H11        30.3477   14.9878   62.7048 H           1 MOL       0.0467
     32 H12        28.0623   16.1177   62.5088 H           1 MOL       0.1858
     33 H13        27.1039   16.4800   66.2382 H           1 MOL       0.2127
     34 H14        26.9137   21.0742   60.4359 H           1 MOL       0.2100
     35 H15        27.0664   19.6040   58.6207 H           1 MOL       0.2101
     36 H16        25.4842   16.3963   58.6372 H           1 MOL       0.1995
     37 H17        26.3291   17.5555   57.7628 H           1 MOL       0.1995
     38 H18        25.3734   18.0066   59.0708 H           1 MOL       0.1995
@<TRIPOS>BOND
     1     1    14  ar
     2     1    13  ar
     3     1     2   1
     4     2    16   1
     5     2     3   2
     6     3     4   1
     7     4    15   1
     8     4     5   1
     9     5    12   1
    10     5     6   1
    11     6    16   1
    12     6     7   1
    13     7    17   1
    14     7     8   1
    15     8    18   1
    16     8     9   1
    17     9    19   1
    18    12    10  am
    19    10    20   2
    20    10    11   1
    21     3    21   1
    22     4    22   1
    23     5    23   1
    24     6    24   1
    25     7    25   1
    26     8    26   1
    27     9    27   1
    28     9    28   1
    29    11    29   1
    30    11    30   1
    31    11    31   1
    32    12    32   1
    33    15    33   1
    34    17    34   1
    35    18    35   1
    36    19    36   1
    37    19    37   1
    38    19    38   1
@<TRIPOS>SUBSTRUCTURE
     1  MOL      1

