@<TRIPOS>MOLECULE
1f8d_ligand_037
    38    38
SMALL
GAST_HUCK
****
This file was generated by PARSER (from files_GN.cpp)

@<TRIPOS>ATOM
      1 C1         24.2399   19.8890   65.0831 C.2         1 MOL       0.0809
      2 C2         25.3875   19.1256   65.1538 C.2         1 MOL       0.1088
      3 C3         25.4086   17.7968   64.9492 C.2         1 MOL      -0.0276
      4 C4         26.6735   17.0896   65.0496 C.3         1 MOL       0.1003
      5 C5         27.8434   17.8841   64.3968 C.3         1 MOL       0.1064
      6 C6         27.7098   19.4334   64.6758 C.3         1 MOL       0.1322
      7 C7         28.9507   20.0583   65.3857 C.3         1 MOL       0.1183
      8 C8         30.3391   19.7999   64.7195 C.3         1 MOL       0.1232
      9 C9         30.3910   19.9278   63.1736 C.3         1 MOL      -0.0062
     10 C10        28.4541   16.6605   62.3251 C.2         1 MOL       0.1734
     11 C11        28.3725   16.6345   60.8802 C.3         1 MOL       0.0257
     12 N5         27.8504   17.6453   62.9757 N.am        1 MOL      -0.2770
     13 O1A        23.0294   19.4534   65.5189 O.co2       1 MOL      -0.5623
     14 O1B        24.2742   21.0374   64.3741 O.co2       1 MOL      -0.5623
     15 O4         26.9456   16.8581   66.4361 O.3         1 MOL      -0.3807
     16 O6         26.5417   19.7499   65.4812 O.3         1 MOL      -0.3189
     17 O7         28.7328   21.4643   65.5269 O.3         1 MOL      -0.3860
     18 O8         31.2962   20.6802   65.3108 O.3         1 MOL      -0.3838
     19 N9         30.2668   21.3113   62.7130 N.4         1 MOL       0.2204
     20 O10        29.0642   15.7675   62.9064 O.2         1 MOL      -0.3974
     21 H1         24.5914   17.3044   64.6660 H           1 MOL       0.0480
     22 H2         26.5926   16.1089   64.5723 H           1 MOL       0.0740
     23 H3         28.7585   17.4907   64.8485 H           1 MOL       0.0632
     24 H4         27.5630   19.9731   63.7341 H           1 MOL       0.0697
     25 H5         28.9889   19.6458   66.3986 H           1 MOL       0.0652
     26 H6         30.6655   18.7899   64.9728 H           1 MOL       0.0674
     27 H7         29.6009   19.3371   62.7101 H           1 MOL       0.0840
     28 H8         31.3423   19.5373   62.8116 H           1 MOL       0.0840
     29 H9         28.8878   15.7645   60.4662 H           1 MOL       0.0467
     30 H10        28.8327   17.5373   60.4683 H           1 MOL       0.0467
     31 H11        27.3252   16.5973   60.5698 H           1 MOL       0.0467
     32 H12        27.3604   18.2847   62.4311 H           1 MOL       0.1858
     33 H13        26.7319   17.6977   66.8954 H           1 MOL       0.2127
     34 H14        29.3679   21.7620   66.2108 H           1 MOL       0.2100
     35 H15        32.1722   20.2870   65.1175 H           1 MOL       0.2101
     36 H16        30.2716   21.3265   61.6940 H           1 MOL       0.1995
     37 H17        31.0509   21.8612   63.0685 H           1 MOL       0.1995
     38 H18        29.3877   21.7110   63.0443 H           1 MOL       0.1995
@<TRIPOS>BOND
     1     1    14  ar
     2     1    13  ar
     3     1     2   1
     4     2    16   1
     5     2     3   2
     6     3     4   1
     7     4    15   1
     8     4     5   1
     9     5    12   1
    10     5     6   1
    11     6    16   1
    12     6     7   1
    13     7    17   1
    14     7     8   1
    15     8    18   1
    16     8     9   1
    17     9    19   1
    18    12    10  am
    19    10    20   2
    20    10    11   1
    21     3    21   1
    22     4    22   1
    23     5    23   1
    24     6    24   1
    25     7    25   1
    26     8    26   1
    27     9    27   1
    28     9    28   1
    29    11    29   1
    30    11    30   1
    31    11    31   1
    32    12    32   1
    33    15    33   1
    34    17    34   1
    35    18    35   1
    36    19    36   1
    37    19    37   1
    38    19    38   1
@<TRIPOS>SUBSTRUCTURE
     1  MOL      1

