@<TRIPOS>MOLECULE
1f8d_ligand_062
    38    38
SMALL
GAST_HUCK
****
This file was generated by PARSER (from files_GN.cpp)

@<TRIPOS>ATOM
      1 C1         26.6325   19.2125   65.1147 C.2         1 MOL       0.0809
      2 C2         26.6951   18.1148   64.2730 C.2         1 MOL       0.1088
      3 C3         27.2055   16.9271   64.6599 C.2         1 MOL      -0.0276
      4 C4         27.3052   15.7749   63.7735 C.3         1 MOL       0.1003
      5 C5         26.5169   15.9206   62.4317 C.3         1 MOL       0.1064
      6 C6         26.4921   17.4104   61.9470 C.3         1 MOL       0.1322
      7 C7         27.7630   17.8751   61.1656 C.3         1 MOL       0.1183
      8 C8         27.5998   19.2309   60.4111 C.3         1 MOL       0.1232
      9 C9         27.4948   20.5117   61.2967 C.3         1 MOL      -0.0062
     10 C10        24.7561   14.2056   62.6167 C.2         1 MOL       0.1734
     11 C11        23.3396   13.9303   62.6906 C.3         1 MOL       0.0257
     12 N5         25.1620   15.4630   62.5701 N.am        1 MOL      -0.2770
     13 O1A        26.9500   19.1456   66.4370 O.co2       1 MOL      -0.5623
     14 O1B        26.2094   20.4219   64.6713 O.co2       1 MOL      -0.5623
     15 O4         28.6946   15.5397   63.5422 O.3         1 MOL      -0.3807
     16 O6         26.1363   18.2777   63.0487 O.3         1 MOL      -0.3189
     17 O7         28.9341   17.9227   61.9738 O.3         1 MOL      -0.3860
     18 O8         28.6941   19.3856   59.5047 O.3         1 MOL      -0.3838
     19 N9         28.7029   20.7693   62.0911 N.4         1 MOL       0.2204
     20 O10        25.5491   13.2657   62.5562 O.2         1 MOL      -0.3974
     21 H1         27.5928   16.8291   65.5753 H           1 MOL       0.0480
     22 H2         26.9272   14.9099   64.3200 H           1 MOL       0.0740
     23 H3         26.9909   15.3139   61.6510 H           1 MOL       0.0632
     24 H4         25.6627   17.5015   61.2362 H           1 MOL       0.0697
     25 H5         27.9517   17.1245   60.3873 H           1 MOL       0.0652
     26 H6         26.6865   19.1759   59.8012 H           1 MOL       0.0674
     27 H7         26.6378   20.4481   61.9628 H           1 MOL       0.0840
     28 H8         27.3301   21.3688   60.6433 H           1 MOL       0.0840
     29 H9         23.1328   12.8581   62.6518 H           1 MOL       0.0467
     30 H10        22.8244   14.4119   61.8531 H           1 MOL       0.0467
     31 H11        22.9381   14.3282   63.6271 H           1 MOL       0.0467
     32 H12        24.4625   16.1409   62.5814 H           1 MOL       0.1858
     33 H13        28.7405   14.9286   62.7744 H           1 MOL       0.2127
     34 H14        29.1582   16.9922   62.1550 H           1 MOL       0.2100
     35 H15        28.3032   19.8458   58.7296 H           1 MOL       0.2101
     36 H16        28.6342   21.6885   62.5383 H           1 MOL       0.1995
     37 H17        29.5284   20.7581   61.4828 H           1 MOL       0.1995
     38 H18        28.8149   20.0517   62.8173 H           1 MOL       0.1995
@<TRIPOS>BOND
     1     1    14  ar
     2     1    13  ar
     3     1     2   1
     4     2    16   1
     5     2     3   2
     6     3     4   1
     7     4    15   1
     8     4     5   1
     9     5    12   1
    10     5     6   1
    11     6    16   1
    12     6     7   1
    13     7    17   1
    14     7     8   1
    15     8    18   1
    16     8     9   1
    17     9    19   1
    18    12    10  am
    19    10    20   2
    20    10    11   1
    21     3    21   1
    22     4    22   1
    23     5    23   1
    24     6    24   1
    25     7    25   1
    26     8    26   1
    27     9    27   1
    28     9    28   1
    29    11    29   1
    30    11    30   1
    31    11    31   1
    32    12    32   1
    33    15    33   1
    34    17    34   1
    35    18    35   1
    36    19    36   1
    37    19    37   1
    38    19    38   1
@<TRIPOS>SUBSTRUCTURE
     1  MOL      1

