@<TRIPOS>MOLECULE
1f8d_ligand_013
    38    38
SMALL
GAST_HUCK
****
This file was generated by PARSER (from files_GN.cpp)

@<TRIPOS>ATOM
      1 C1         23.8713   19.4064   64.2648 C.2         1 MOL       0.0809
      2 C2         25.1493   19.0559   63.8554 C.2         1 MOL       0.1088
      3 C3         25.6240   17.7948   63.9359 C.2         1 MOL      -0.0276
      4 C4         27.0063   17.4577   63.6227 C.3         1 MOL       0.1003
      5 C5         27.8072   18.6143   62.9394 C.3         1 MOL       0.1064
      6 C6         27.3321   20.0026   63.4762 C.3         1 MOL       0.1322
      7 C7         27.8054   20.3946   64.9216 C.3         1 MOL       0.1183
      8 C8         29.1083   21.2607   64.9648 C.3         1 MOL       0.1232
      9 C9         29.1805   22.2574   66.1546 C.3         1 MOL      -0.0062
     10 C10        28.4216   18.7125   60.5388 C.2         1 MOL       0.1734
     11 C11        27.9229   18.8945   59.1933 C.3         1 MOL       0.0257
     12 N5         27.5396   18.6106   61.5225 N.am        1 MOL      -0.2770
     13 O1A        23.0114   18.5289   64.8321 O.co2       1 MOL      -0.5623
     14 O1B        23.4693   20.6963   64.1959 O.co2       1 MOL      -0.5623
     15 O4         27.6424   17.0631   64.8388 O.3         1 MOL      -0.3807
     16 O6         25.8898   20.0648   63.3363 O.3         1 MOL      -0.3189
     17 O7         26.7390   21.0690   65.5861 O.3         1 MOL      -0.3860
     18 O8         30.2358   20.3818   64.9804 O.3         1 MOL      -0.3838
     19 N9         30.4574   22.9748   66.2178 N.4         1 MOL       0.2204
     20 O10        29.6289   18.7305   60.7410 O.2         1 MOL      -0.3974
     21 H1         25.0455   17.0752   64.3047 H           1 MOL       0.0480
     22 H2         27.0081   16.5811   62.9722 H           1 MOL       0.0740
     23 H3         28.8735   18.4790   63.1372 H           1 MOL       0.0632
     24 H4         27.7024   20.7687   62.7904 H           1 MOL       0.0697
     25 H5         27.9806   19.4919   65.4962 H           1 MOL       0.0652
     26 H6         29.1850   21.8618   64.0554 H           1 MOL       0.0674
     27 H7         29.0301   21.7285   67.0931 H           1 MOL       0.0840
     28 H8         28.3942   23.0097   66.0472 H           1 MOL       0.0840
     29 H9         28.7382   18.9841   58.4679 H           1 MOL       0.0467
     30 H10        27.3211   19.8081   59.1473 H           1 MOL       0.0467
     31 H11        27.2973   18.0436   58.9093 H           1 MOL       0.0467
     32 H12        26.6023   18.6399   61.2613 H           1 MOL       0.1858
     33 H13        26.9899   16.5153   65.3258 H           1 MOL       0.2127
     34 H14        26.7503   20.7161   66.5100 H           1 MOL       0.2100
     35 H15        31.0049   20.9141   64.6829 H           1 MOL       0.2101
     36 H16        30.3839   23.7433   66.8880 H           1 MOL       0.1995
     37 H17        30.6837   23.3540   65.2962 H           1 MOL       0.1995
     38 H18        31.1989   22.3369   66.5182 H           1 MOL       0.1995
@<TRIPOS>BOND
     1     1    14  ar
     2     1    13  ar
     3     1     2   1
     4     2    16   1
     5     2     3   2
     6     3     4   1
     7     4    15   1
     8     4     5   1
     9     5    12   1
    10     5     6   1
    11     6    16   1
    12     6     7   1
    13     7    17   1
    14     7     8   1
    15     8    18   1
    16     8     9   1
    17     9    19   1
    18    12    10  am
    19    10    20   2
    20    10    11   1
    21     3    21   1
    22     4    22   1
    23     5    23   1
    24     6    24   1
    25     7    25   1
    26     8    26   1
    27     9    27   1
    28     9    28   1
    29    11    29   1
    30    11    30   1
    31    11    31   1
    32    12    32   1
    33    15    33   1
    34    17    34   1
    35    18    35   1
    36    19    36   1
    37    19    37   1
    38    19    38   1
@<TRIPOS>SUBSTRUCTURE
     1  MOL      1

