@<TRIPOS>MOLECULE
1f8d_ligand_045
    38    38
SMALL
GAST_HUCK
****
This file was generated by PARSER (from files_GN.cpp)

@<TRIPOS>ATOM
      1 C1         27.3207   19.7268   63.9919 C.2         1 MOL       0.0809
      2 C2         27.6425   18.6794   63.1406 C.2         1 MOL       0.1088
      3 C3         28.8013   17.9967   63.2649 C.2         1 MOL      -0.0276
      4 C4         29.1764   16.9404   62.3390 C.3         1 MOL       0.1003
      5 C5         28.0914   16.5781   61.2627 C.3         1 MOL       0.1064
      6 C6         27.1695   17.7997   60.9657 C.3         1 MOL       0.1322
      7 C7         27.7678   18.9094   60.0452 C.3         1 MOL       0.1183
      8 C8         27.8795   18.5747   58.5170 C.3         1 MOL       0.1232
      9 C9         27.1853   17.2901   57.9899 C.3         1 MOL      -0.0062
     10 C10        27.2462   14.2418   61.3267 C.2         1 MOL       0.1734
     11 C11        26.1837   13.3564   61.7534 C.3         1 MOL       0.0257
     12 N5         27.2548   15.5045   61.7411 N.am        1 MOL      -0.2770
     13 O1A        26.0170   20.1135   64.1481 O.co2       1 MOL      -0.5623
     14 O1B        28.2688   20.4483   64.6684 O.co2       1 MOL      -0.5623
     15 O4         30.3748   17.3598   61.6896 O.3         1 MOL      -0.3807
     16 O6         26.7117   18.3370   62.2257 O.3         1 MOL      -0.3189
     17 O7         26.9989   20.0988   60.2303 O.3         1 MOL      -0.3860
     18 O8         27.4419   19.6984   57.7424 O.3         1 MOL      -0.3838
     19 N9         25.7393   17.4030   57.7606 N.4         1 MOL       0.2204
     20 O10        28.1094   13.8042   60.5647 O.2         1 MOL      -0.3974
     21 H1         29.4633   18.2350   63.9860 H           1 MOL       0.0480
     22 H2         29.4212   16.0469   62.9285 H           1 MOL       0.0740
     23 H3         28.6024   16.2654   60.3560 H           1 MOL       0.0632
     24 H4         26.2612   17.4485   60.4824 H           1 MOL       0.0697
     25 H5         28.7761   19.1582   60.4069 H           1 MOL       0.0652
     26 H6         28.9482   18.4826   58.3100 H           1 MOL       0.0674
     27 H7         27.3630   16.4745   58.7111 H           1 MOL       0.0840
     28 H8         27.6553   17.0004   57.0467 H           1 MOL       0.0840
     29 H9         26.2943   12.3500   61.3372 H           1 MOL       0.0467
     30 H10        25.2210   13.7610   61.4262 H           1 MOL       0.0467
     31 H11        26.1755   13.2879   62.8432 H           1 MOL       0.0467
     32 H12        26.5523   15.7359   62.3812 H           1 MOL       0.1858
     33 H13        30.7286   16.5461   61.2585 H           1 MOL       0.2127
     34 H14        27.1959   20.3823   61.1675 H           1 MOL       0.2100
     35 H15        28.0540   19.7569   56.9531 H           1 MOL       0.2101
     36 H16        25.3394   16.4779   57.9310 H           1 MOL       0.1995
     37 H17        25.5622   17.6701   56.7917 H           1 MOL       0.1995
     38 H18        25.3283   18.0666   58.4199 H           1 MOL       0.1995
@<TRIPOS>BOND
     1     1    14  ar
     2     1    13  ar
     3     1     2   1
     4     2    16   1
     5     2     3   2
     6     3     4   1
     7     4    15   1
     8     4     5   1
     9     5    12   1
    10     5     6   1
    11     6    16   1
    12     6     7   1
    13     7    17   1
    14     7     8   1
    15     8    18   1
    16     8     9   1
    17     9    19   1
    18    12    10  am
    19    10    20   2
    20    10    11   1
    21     3    21   1
    22     4    22   1
    23     5    23   1
    24     6    24   1
    25     7    25   1
    26     8    26   1
    27     9    27   1
    28     9    28   1
    29    11    29   1
    30    11    30   1
    31    11    31   1
    32    12    32   1
    33    15    33   1
    34    17    34   1
    35    18    35   1
    36    19    36   1
    37    19    37   1
    38    19    38   1
@<TRIPOS>SUBSTRUCTURE
     1  MOL      1

