@<TRIPOS>MOLECULE
1f8d_ligand_002
    38    38
SMALL
GAST_HUCK
****
This file was generated by PARSER (from files_GN.cpp)

@<TRIPOS>ATOM
      1 C1         23.9958   19.8498   64.9201 C.2         1 MOL       0.0809
      2 C2         24.9254   18.8665   64.6720 C.2         1 MOL       0.1088
      3 C3         26.1841   19.0006   65.1520 C.2         1 MOL      -0.0276
      4 C4         27.2127   18.0512   64.8269 C.3         1 MOL       0.1003
      5 C5         26.9718   17.3820   63.4536 C.3         1 MOL       0.1064
      6 C6         25.4881   16.8775   63.3627 C.3         1 MOL       0.1322
      7 C7         25.1328   16.3675   61.9195 C.3         1 MOL       0.1183
      8 C8         24.8258   14.8376   61.8023 C.3         1 MOL       0.1232
      9 C9         23.3246   14.4680   61.9662 C.3         1 MOL      -0.0062
     10 C10        29.0149   16.3135   62.5956 C.2         1 MOL       0.1734
     11 C11        29.8786   15.1433   62.6331 C.3         1 MOL       0.0257
     12 N5         27.8917   16.2950   63.2965 N.am        1 MOL      -0.2770
     13 O1A        24.1958   21.0548   64.3194 O.co2       1 MOL      -0.5623
     14 O1B        22.7198   19.5207   65.2810 O.co2       1 MOL      -0.5623
     15 O4         28.4732   18.7184   64.8204 O.3         1 MOL      -0.3807
     16 O6         24.5500   17.8934   63.7838 O.3         1 MOL      -0.3189
     17 O7         24.0455   17.1084   61.3463 O.3         1 MOL      -0.3860
     18 O8         25.3054   14.3345   60.5575 O.3         1 MOL      -0.3838
     19 N9         23.0914   13.0223   61.8332 N.4         1 MOL       0.2204
     20 O10        29.3713   17.2944   61.9500 O.2         1 MOL      -0.3974
     21 H1         26.4006   19.7484   65.7833 H           1 MOL       0.0480
     22 H2         27.2501   17.3078   65.6238 H           1 MOL       0.0740
     23 H3         27.1069   18.1472   62.6817 H           1 MOL       0.0632
     24 H4         25.3737   16.0561   64.0793 H           1 MOL       0.0697
     25 H5         25.9855   16.5503   61.2608 H           1 MOL       0.0652
     26 H6         25.3963   14.3142   62.5753 H           1 MOL       0.0674
     27 H7         22.7359   14.9754   61.1981 H           1 MOL       0.0840
     28 H8         22.9579   14.7772   62.9450 H           1 MOL       0.0840
     29 H9         30.7986   15.3197   62.0690 H           1 MOL       0.0467
     30 H10        29.3524   14.2893   62.2017 H           1 MOL       0.0467
     31 H11        30.1460   14.9143   63.6676 H           1 MOL       0.0467
     32 H12        27.7021   15.4863   63.8023 H           1 MOL       0.1858
     33 H13        28.4226   19.3948   64.1053 H           1 MOL       0.2127
     34 H14        24.4334   17.8888   60.9009 H           1 MOL       0.2100
     35 H15        24.7575   14.7463   59.8500 H           1 MOL       0.2101
     36 H16        22.0873   12.8620   61.6916 H           1 MOL       0.1995
     37 H17        23.3955   12.5139   62.6754 H           1 MOL       0.1995
     38 H18        23.6018   12.6703   61.0137 H           1 MOL       0.1995
@<TRIPOS>BOND
     1     1    14  ar
     2     1    13  ar
     3     1     2   1
     4     2    16   1
     5     2     3   2
     6     3     4   1
     7     4    15   1
     8     4     5   1
     9     5    12   1
    10     5     6   1
    11     6    16   1
    12     6     7   1
    13     7    17   1
    14     7     8   1
    15     8    18   1
    16     8     9   1
    17     9    19   1
    18    12    10  am
    19    10    20   2
    20    10    11   1
    21     3    21   1
    22     4    22   1
    23     5    23   1
    24     6    24   1
    25     7    25   1
    26     8    26   1
    27     9    27   1
    28     9    28   1
    29    11    29   1
    30    11    30   1
    31    11    31   1
    32    12    32   1
    33    15    33   1
    34    17    34   1
    35    18    35   1
    36    19    36   1
    37    19    37   1
    38    19    38   1
@<TRIPOS>SUBSTRUCTURE
     1  MOL      1

