@<TRIPOS>MOLECULE
1f8d_ligand_033
    38    38
SMALL
GAST_HUCK
****
This file was generated by PARSER (from files_GN.cpp)

@<TRIPOS>ATOM
      1 C1         28.0660   15.5385   60.1828 C.2         1 MOL       0.0809
      2 C2         28.0690   16.0201   61.4799 C.2         1 MOL       0.1088
      3 C3         29.0365   15.7016   62.3661 C.2         1 MOL      -0.0276
      4 C4         29.0606   16.3225   63.6756 C.3         1 MOL       0.1003
      5 C5         27.6123   16.3515   64.2586 C.3         1 MOL       0.1064
      6 C6         26.6639   17.0428   63.2125 C.3         1 MOL       0.1322
      7 C7         25.1569   16.6517   63.4040 C.3         1 MOL       0.1183
      8 C8         24.1251   17.4374   62.5193 C.3         1 MOL       0.1232
      9 C9         23.6212   16.7481   61.2186 C.3         1 MOL      -0.0062
     10 C10        28.0469   16.6021   66.6814 C.2         1 MOL       0.1734
     11 C11        27.9266   17.4537   67.8451 C.3         1 MOL       0.0257
     12 N5         27.5674   17.0324   65.5246 N.am        1 MOL      -0.2770
     13 O1A        27.5595   16.2868   59.1725 O.co2       1 MOL      -0.5623
     14 O1B        28.6265   14.3518   59.8323 O.co2       1 MOL      -0.5623
     15 O4         29.9834   15.6347   64.5193 O.3         1 MOL      -0.3807
     16 O6         27.0688   16.8724   61.8256 O.3         1 MOL      -0.3189
     17 O7         25.0027   15.2347   63.2823 O.3         1 MOL      -0.3860
     18 O8         22.9614   17.7598   63.2887 O.3         1 MOL      -0.3838
     19 N9         24.6402   16.6967   60.1656 N.4         1 MOL       0.2204
     20 O10        28.5815   15.5034   66.7931 O.2         1 MOL      -0.3974
     21 H1         29.7461   15.0393   62.1277 H           1 MOL       0.0480
     22 H2         29.4199   17.3491   63.5603 H           1 MOL       0.0740
     23 H3         27.2829   15.3139   64.3963 H           1 MOL       0.0632
     24 H4         26.7391   18.1246   63.3737 H           1 MOL       0.0697
     25 H5         24.9176   16.8788   64.4470 H           1 MOL       0.0652
     26 H6         24.5632   18.4004   62.2461 H           1 MOL       0.0674
     27 H7         22.7690   17.3028   60.8143 H           1 MOL       0.0840
     28 H8         23.2878   15.7316   61.4365 H           1 MOL       0.0840
     29 H9         28.3656   16.9896   68.7327 H           1 MOL       0.0467
     30 H10        26.8720   17.6585   68.0477 H           1 MOL       0.0467
     31 H11        28.4434   18.3997   67.6622 H           1 MOL       0.0467
     32 H12        27.1170   17.8943   65.5370 H           1 MOL       0.1858
     33 H13        30.2395   16.2902   65.2031 H           1 MOL       0.2127
     34 H14        25.3187   15.0112   62.3831 H           1 MOL       0.2100
     35 H15        22.2984   17.0621   63.0985 H           1 MOL       0.2101
     36 H16        24.2902   16.1668   59.3604 H           1 MOL       0.1995
     37 H17        25.4814   16.2376   60.5244 H           1 MOL       0.1995
     38 H18        24.8532   17.6558   59.8722 H           1 MOL       0.1995
@<TRIPOS>BOND
     1     1    14  ar
     2     1    13  ar
     3     1     2   1
     4     2    16   1
     5     2     3   2
     6     3     4   1
     7     4    15   1
     8     4     5   1
     9     5    12   1
    10     5     6   1
    11     6    16   1
    12     6     7   1
    13     7    17   1
    14     7     8   1
    15     8    18   1
    16     8     9   1
    17     9    19   1
    18    12    10  am
    19    10    20   2
    20    10    11   1
    21     3    21   1
    22     4    22   1
    23     5    23   1
    24     6    24   1
    25     7    25   1
    26     8    26   1
    27     9    27   1
    28     9    28   1
    29    11    29   1
    30    11    30   1
    31    11    31   1
    32    12    32   1
    33    15    33   1
    34    17    34   1
    35    18    35   1
    36    19    36   1
    37    19    37   1
    38    19    38   1
@<TRIPOS>SUBSTRUCTURE
     1  MOL      1

