@<TRIPOS>MOLECULE
1f8d_ligand_049
    38    38
SMALL
GAST_HUCK
****
This file was generated by PARSER (from files_GN.cpp)

@<TRIPOS>ATOM
      1 C1         24.8328   17.6933   61.8468 C.2         1 MOL       0.0809
      2 C2         26.1105   18.2266   61.7662 C.2         1 MOL       0.1088
      3 C3         26.4948   19.2586   62.5473 C.2         1 MOL      -0.0276
      4 C4         27.8199   19.8432   62.4894 C.3         1 MOL       0.1003
      5 C5         28.8736   19.0069   61.6905 C.3         1 MOL       0.1064
      6 C6         28.2063   18.1951   60.5212 C.3         1 MOL       0.1322
      7 C7         28.0106   18.9691   59.1711 C.3         1 MOL       0.1183
      8 C8         27.8051   18.0661   57.9133 C.3         1 MOL       0.1232
      9 C9         26.8544   16.8504   58.0609 C.3         1 MOL      -0.0062
     10 C10        29.4987   16.9542   62.9881 C.2         1 MOL       0.1734
     11 C11        30.4710   16.3673   63.8726 C.3         1 MOL       0.0257
     12 N5         29.6903   18.1962   62.5584 N.am        1 MOL      -0.2770
     13 O1A        24.3733   16.8530   60.8854 O.co2       1 MOL      -0.5623
     14 O1B        24.0042   17.9044   62.9036 O.co2       1 MOL      -0.5623
     15 O4         27.6520   21.1444   61.9220 O.3         1 MOL      -0.3807
     16 O6         26.9750   17.5707   60.9536 O.3         1 MOL      -0.3189
     17 O7         26.9462   19.9098   59.2722 O.3         1 MOL      -0.3860
     18 O8         27.3812   18.8743   56.8009 O.3         1 MOL      -0.3838
     19 N9         25.4519   17.2506   58.0055 N.4         1 MOL       0.2204
     20 O10        28.5525   16.2632   62.6109 O.2         1 MOL      -0.3974
     21 H1         25.8290   19.7239   63.1388 H           1 MOL       0.0480
     22 H2         28.1862   19.9901   63.5085 H           1 MOL       0.0740
     23 H3         29.5903   19.7015   61.2466 H           1 MOL       0.0632
     24 H4         28.8852   17.3674   60.2905 H           1 MOL       0.0697
     25 H5         28.9162   19.5440   58.9700 H           1 MOL       0.0652
     26 H6         28.7834   17.6704   57.6356 H           1 MOL       0.0674
     27 H7         27.0499   16.3156   58.9846 H           1 MOL       0.0840
     28 H8         27.0255   16.1539   57.2342 H           1 MOL       0.0840
     29 H9         30.2837   15.3017   64.0281 H           1 MOL       0.0467
     30 H10        30.4269   16.8734   64.8397 H           1 MOL       0.0467
     31 H11        31.4757   16.4825   63.4539 H           1 MOL       0.0467
     32 H12        30.5026   18.6258   62.8816 H           1 MOL       0.1858
     33 H13        28.5114   21.3932   61.5146 H           1 MOL       0.2127
     34 H14        27.3704   20.7546   59.5503 H           1 MOL       0.2100
     35 H15        26.9727   18.2448   56.1683 H           1 MOL       0.2101
     36 H16        24.8719   16.4702   58.2997 H           1 MOL       0.1995
     37 H17        25.2185   17.5014   57.0393 H           1 MOL       0.1995
     38 H18        25.2704   18.0428   58.6263 H           1 MOL       0.1995
@<TRIPOS>BOND
     1     1    14  ar
     2     1    13  ar
     3     1     2   1
     4     2    16   1
     5     2     3   2
     6     3     4   1
     7     4    15   1
     8     4     5   1
     9     5    12   1
    10     5     6   1
    11     6    16   1
    12     6     7   1
    13     7    17   1
    14     7     8   1
    15     8    18   1
    16     8     9   1
    17     9    19   1
    18    12    10  am
    19    10    20   2
    20    10    11   1
    21     3    21   1
    22     4    22   1
    23     5    23   1
    24     6    24   1
    25     7    25   1
    26     8    26   1
    27     9    27   1
    28     9    28   1
    29    11    29   1
    30    11    30   1
    31    11    31   1
    32    12    32   1
    33    15    33   1
    34    17    34   1
    35    18    35   1
    36    19    36   1
    37    19    37   1
    38    19    38   1
@<TRIPOS>SUBSTRUCTURE
     1  MOL      1

