@<TRIPOS>MOLECULE
1f8d_ligand_075
    38    38
SMALL
GAST_HUCK
****
This file was generated by PARSER (from files_GN.cpp)

@<TRIPOS>ATOM
      1 C1         28.6371   17.3849   65.4447 C.2         1 MOL       0.0809
      2 C2         27.5256   18.0174   65.9519 C.2         1 MOL       0.1088
      3 C3         27.0823   17.8234   67.2112 C.2         1 MOL      -0.0276
      4 C4         25.8275   18.3761   67.6952 C.3         1 MOL       0.1003
      5 C5         25.0440   19.2590   66.6629 C.3         1 MOL       0.1064
      6 C6         25.4368   18.8900   65.1876 C.3         1 MOL       0.1322
      7 C7         24.7659   17.5873   64.6158 C.3         1 MOL       0.1183
      8 C8         23.7397   17.8710   63.4733 C.3         1 MOL       0.1232
      9 C9         23.5903   16.7842   62.3766 C.3         1 MOL      -0.0062
     10 C10        24.5301   21.6242   67.1989 C.2         1 MOL       0.1734
     11 C11        25.0182   22.9901   67.2478 C.3         1 MOL       0.0257
     12 N5         25.3676   20.6444   66.8807 N.am        1 MOL      -0.2770
     13 O1A        29.3451   17.9477   64.4330 O.co2       1 MOL      -0.5623
     14 O1B        28.8946   16.0801   65.7035 O.co2       1 MOL      -0.5623
     15 O4         25.0037   17.2955   68.1241 O.3         1 MOL      -0.3807
     16 O6         26.8847   18.8651   65.1218 O.3         1 MOL      -0.3189
     17 O7         25.7722   16.6667   64.1698 O.3         1 MOL      -0.3860
     18 O8         22.4450   18.0845   64.0470 O.3         1 MOL      -0.3838
     19 N9         24.5890   16.9294   61.3027 N.4         1 MOL       0.2204
     20 O10        23.3440   21.4212   67.4396 O.2         1 MOL      -0.3974
     21 H1         27.6034   17.2450   67.8318 H           1 MOL       0.0480
     22 H2         26.0359   18.9563   68.5977 H           1 MOL       0.0740
     23 H3         23.9648   19.0966   66.7916 H           1 MOL       0.0632
     24 H4         25.1465   19.7308   64.5490 H           1 MOL       0.0697
     25 H5         24.2319   17.0737   65.4138 H           1 MOL       0.0652
     26 H6         24.0284   18.7889   62.9587 H           1 MOL       0.0674
     27 H7         22.6041   16.8824   61.9126 H           1 MOL       0.0840
     28 H8         23.6717   15.7768   62.8029 H           1 MOL       0.0840
     29 H9         24.2314   23.6999   67.5413 H           1 MOL       0.0467
     30 H10        25.3810   23.2801   66.2549 H           1 MOL       0.0467
     31 H11        25.8437   23.0774   67.9645 H           1 MOL       0.0467
     32 H12        26.2931   20.9032   66.7402 H           1 MOL       0.1858
     33 H13        25.5981   16.6482   68.5624 H           1 MOL       0.2127
     34 H14        26.4277   17.2039   63.6675 H           1 MOL       0.2100
     35 H15        21.8887   17.3469   63.7057 H           1 MOL       0.2101
     36 H16        24.4390   16.2220   60.5813 H           1 MOL       0.1995
     37 H17        25.5323   16.8233   61.6832 H           1 MOL       0.1995
     38 H18        24.4955   17.8620   60.8811 H           1 MOL       0.1995
@<TRIPOS>BOND
     1     1    14  ar
     2     1    13  ar
     3     1     2   1
     4     2    16   1
     5     2     3   2
     6     3     4   1
     7     4    15   1
     8     4     5   1
     9     5    12   1
    10     5     6   1
    11     6    16   1
    12     6     7   1
    13     7    17   1
    14     7     8   1
    15     8    18   1
    16     8     9   1
    17     9    19   1
    18    12    10  am
    19    10    20   2
    20    10    11   1
    21     3    21   1
    22     4    22   1
    23     5    23   1
    24     6    24   1
    25     7    25   1
    26     8    26   1
    27     9    27   1
    28     9    28   1
    29    11    29   1
    30    11    30   1
    31    11    31   1
    32    12    32   1
    33    15    33   1
    34    17    34   1
    35    18    35   1
    36    19    36   1
    37    19    37   1
    38    19    38   1
@<TRIPOS>SUBSTRUCTURE
     1  MOL      1

