@<TRIPOS>MOLECULE
1f8d_ligand_073
    38    38
SMALL
GAST_HUCK
****
This file was generated by PARSER (from files_GN.cpp)

@<TRIPOS>ATOM
      1 C1         30.0138   15.3324   62.7788 C.2         1 MOL       0.0809
      2 C2         29.1559   16.1967   63.3999 C.2         1 MOL       0.1088
      3 C3         29.3905   16.5939   64.6641 C.2         1 MOL      -0.0276
      4 C4         28.5726   17.5857   65.3383 C.3         1 MOL       0.1003
      5 C5         27.5281   18.2978   64.4199 C.3         1 MOL       0.1064
      6 C6         27.0370   17.3662   63.2523 C.3         1 MOL       0.1322
      7 C7         25.9085   16.3393   63.6454 C.3         1 MOL       0.1183
      8 C8         24.7344   16.1556   62.6252 C.3         1 MOL       0.1232
      9 C9         23.9180   17.4383   62.3102 C.3         1 MOL      -0.0062
     10 C10        29.0563   19.9199   63.2720 C.2         1 MOL       0.1734
     11 C11        29.2087   21.3041   62.8830 C.3         1 MOL       0.0257
     12 N5         27.9596   19.5906   63.9446 N.am        1 MOL      -0.2770
     13 O1A        29.5454   14.1057   62.4806 O.co2       1 MOL      -0.5623
     14 O1B        30.9201   15.8625   61.9265 O.co2       1 MOL      -0.5623
     15 O4         27.9373   16.9556   66.4493 O.3         1 MOL      -0.3807
     16 O6         28.1736   16.7223   62.6245 O.3         1 MOL      -0.3189
     17 O7         26.4744   15.0464   63.8822 O.3         1 MOL      -0.3860
     18 O8         25.2352   15.5984   61.4045 O.3         1 MOL      -0.3838
     19 N9         22.9693   17.8078   63.3697 N.4         1 MOL       0.2204
     20 O10        29.9320   19.1210   62.9903 O.2         1 MOL      -0.3974
     21 H1         30.1308   16.1844   65.1806 H           1 MOL       0.0480
     22 H2         29.2419   18.3400   65.7620 H           1 MOL       0.0740
     23 H3         26.6551   18.5467   65.0396 H           1 MOL       0.0632
     24 H4         26.6454   18.0201   62.4855 H           1 MOL       0.0697
     25 H5         25.4533   16.6417   64.5877 H           1 MOL       0.0652
     26 H6         24.0291   15.4175   63.0340 H           1 MOL       0.0674
     27 H7         23.3349   17.2866   61.3900 H           1 MOL       0.0840
     28 H8         24.5747   18.2848   62.1414 H           1 MOL       0.0840
     29 H9         30.1427   21.4763   62.3415 H           1 MOL       0.0467
     30 H10        29.2005   21.9390   63.7723 H           1 MOL       0.0467
     31 H11        28.3781   21.5942   62.2357 H           1 MOL       0.0467
     32 H12        27.3568   20.3242   64.1340 H           1 MOL       0.1858
     33 H13        27.1670   16.4699   66.0929 H           1 MOL       0.2127
     34 H14        26.7820   14.7421   63.0016 H           1 MOL       0.2100
     35 H15        25.8518   16.2674   61.0344 H           1 MOL       0.2101
     36 H16        22.6746   18.7717   63.2092 H           1 MOL       0.1995
     37 H17        23.4078   17.7417   64.2869 H           1 MOL       0.1995
     38 H18        22.1462   17.1947   63.3313 H           1 MOL       0.1995
@<TRIPOS>BOND
     1     1    14  ar
     2     1    13  ar
     3     1     2   1
     4     2    16   1
     5     2     3   2
     6     3     4   1
     7     4    15   1
     8     4     5   1
     9     5    12   1
    10     5     6   1
    11     6    16   1
    12     6     7   1
    13     7    17   1
    14     7     8   1
    15     8    18   1
    16     8     9   1
    17     9    19   1
    18    12    10  am
    19    10    20   2
    20    10    11   1
    21     3    21   1
    22     4    22   1
    23     5    23   1
    24     6    24   1
    25     7    25   1
    26     8    26   1
    27     9    27   1
    28     9    28   1
    29    11    29   1
    30    11    30   1
    31    11    31   1
    32    12    32   1
    33    15    33   1
    34    17    34   1
    35    18    35   1
    36    19    36   1
    37    19    37   1
    38    19    38   1
@<TRIPOS>SUBSTRUCTURE
     1  MOL      1

