@<TRIPOS>MOLECULE
1f8d_ligand_077
    38    38
SMALL
GAST_HUCK
****
This file was generated by PARSER (from files_GN.cpp)

@<TRIPOS>ATOM
      1 C1         27.5966   18.6849   60.9668 C.2         1 MOL       0.0809
      2 C2         26.8424   18.2858   62.0582 C.2         1 MOL       0.1088
      3 C3         27.3137   17.4531   63.0070 C.2         1 MOL      -0.0276
      4 C4         26.5018   16.9752   64.1170 C.3         1 MOL       0.1003
      5 C5         25.0653   17.6046   64.2340 C.3         1 MOL       0.1064
      6 C6         24.5636   18.1338   62.8464 C.3         1 MOL       0.1322
      7 C7         23.7817   17.1770   61.8773 C.3         1 MOL       0.1183
      8 C8         24.2765   15.7103   61.6359 C.3         1 MOL       0.1232
      9 C9         23.6318   14.6200   62.5401 C.3         1 MOL      -0.0062
     10 C10        24.0726   19.3777   65.6629 C.2         1 MOL       0.1734
     11 C11        24.3289   20.4196   66.6277 C.3         1 MOL       0.0257
     12 N5         25.1036   18.6798   65.1975 N.am        1 MOL      -0.2770
     13 O1A        27.1379   19.6449   60.1308 O.co2       1 MOL      -0.5623
     14 O1B        28.7934   18.1323   60.6594 O.co2       1 MOL      -0.5623
     15 O4         26.4153   15.5568   63.9982 O.3         1 MOL      -0.3807
     16 O6         25.6281   18.8519   62.1831 O.3         1 MOL      -0.3189
     17 O7         22.3912   17.1949   62.2095 O.3         1 MOL      -0.3860
     18 O8         23.9805   15.3228   60.2921 O.3         1 MOL      -0.3838
     19 N9         24.1807   13.2826   62.2754 N.4         1 MOL       0.2204
     20 O10        22.9212   19.1612   65.3040 O.2         1 MOL      -0.3974
     21 H1         28.2354   17.0834   62.9318 H           1 MOL       0.0480
     22 H2         27.0593   17.1595   65.0413 H           1 MOL       0.0740
     23 H3         24.3722   16.8514   64.6185 H           1 MOL       0.0632
     24 H4         23.8458   18.9285   63.0556 H           1 MOL       0.0697
     25 H5         23.8209   17.6788   60.9074 H           1 MOL       0.0652
     26 H6         25.3616   15.6717   61.7398 H           1 MOL       0.0674
     27 H7         22.5567   14.5767   62.3652 H           1 MOL       0.0840
     28 H8         23.7880   14.8484   63.5914 H           1 MOL       0.0840
     29 H9         23.4082   20.9301   66.9223 H           1 MOL       0.0467
     30 H10        25.0049   21.1587   66.1974 H           1 MOL       0.0467
     31 H11        24.7850   19.9912   67.5226 H           1 MOL       0.0467
     32 H12        25.9714   18.9071   65.5662 H           1 MOL       0.1858
     33 H13        27.2993   15.2168   64.2457 H           1 MOL       0.2127
     34 H14        22.3292   16.8146   63.1120 H           1 MOL       0.2100
     35 H15        24.5900   15.8394   59.7226 H           1 MOL       0.2101
     36 H16        23.7430   12.5995   62.9006 H           1 MOL       0.1995
     37 H17        25.1905   13.2870   62.4372 H           1 MOL       0.1995
     38 H18        23.9988   13.0086   61.3037 H           1 MOL       0.1995
@<TRIPOS>BOND
     1     1    14  ar
     2     1    13  ar
     3     1     2   1
     4     2    16   1
     5     2     3   2
     6     3     4   1
     7     4    15   1
     8     4     5   1
     9     5    12   1
    10     5     6   1
    11     6    16   1
    12     6     7   1
    13     7    17   1
    14     7     8   1
    15     8    18   1
    16     8     9   1
    17     9    19   1
    18    12    10  am
    19    10    20   2
    20    10    11   1
    21     3    21   1
    22     4    22   1
    23     5    23   1
    24     6    24   1
    25     7    25   1
    26     8    26   1
    27     9    27   1
    28     9    28   1
    29    11    29   1
    30    11    30   1
    31    11    31   1
    32    12    32   1
    33    15    33   1
    34    17    34   1
    35    18    35   1
    36    19    36   1
    37    19    37   1
    38    19    38   1
@<TRIPOS>SUBSTRUCTURE
     1  MOL      1

