@<TRIPOS>MOLECULE
1f8d_ligand_036
    38    38
SMALL
GAST_HUCK
****
This file was generated by PARSER (from files_GN.cpp)

@<TRIPOS>ATOM
      1 C1         25.7400   18.8814   71.7341 C.2         1 MOL       0.0809
      2 C2         25.4073   18.7242   70.3966 C.2         1 MOL       0.1088
      3 C3         26.2863   18.9667   69.4017 C.2         1 MOL      -0.0276
      4 C4         25.9625   18.7427   68.0088 C.3         1 MOL       0.1003
      5 C5         24.4332   18.7948   67.7153 C.3         1 MOL       0.1064
      6 C6         23.6618   18.0259   68.8323 C.3         1 MOL       0.1322
      7 C7         22.1161   18.2769   68.7893 C.3         1 MOL       0.1183
      8 C8         21.2949   17.0554   69.3161 C.3         1 MOL       0.1232
      9 C9         20.0690   17.3642   70.2070 C.3         1 MOL      -0.0062
     10 C10        23.5351   18.6663   65.4173 C.2         1 MOL       0.1734
     11 C11        23.3633   17.8353   64.2432 C.3         1 MOL       0.0257
     12 N5         24.1871   18.1634   66.4523 N.am        1 MOL      -0.2770
     13 O1A        25.0589   18.2100   72.6990 O.co2       1 MOL      -0.5623
     14 O1B        26.6760   19.7683   72.1609 O.co2       1 MOL      -0.5623
     15 O4         26.6142   19.7168   67.1972 O.3         1 MOL      -0.3807
     16 O6         24.1208   18.3909   70.1568 O.3         1 MOL      -0.3189
     17 O7         21.8045   19.4881   69.4922 O.3         1 MOL      -0.3860
     18 O8         20.8648   16.2839   68.1882 O.3         1 MOL      -0.3838
     19 N9         19.1229   18.3405   69.6362 N.4         1 MOL       0.2204
     20 O10        23.0265   19.7808   65.4357 O.2         1 MOL      -0.3974
     21 H1         27.2361   19.1904   69.6242 H           1 MOL       0.0480
     22 H2         26.3575   17.7590   67.7365 H           1 MOL       0.0740
     23 H3         24.1109   19.8401   67.7309 H           1 MOL       0.0632
     24 H4         23.8620   16.9515   68.7006 H           1 MOL       0.0697
     25 H5         21.8059   18.4601   67.7605 H           1 MOL       0.0652
     26 H6         21.9544   16.4149   69.9119 H           1 MOL       0.0674
     27 H7         20.4155   17.7667   71.1592 H           1 MOL       0.0840
     28 H8         19.5169   16.4515   70.4133 H           1 MOL       0.0840
     29 H9         22.7647   18.3385   63.4745 H           1 MOL       0.0467
     30 H10        22.8522   16.9064   64.5150 H           1 MOL       0.0467
     31 H11        24.3419   17.5899   63.8183 H           1 MOL       0.0467
     32 H12        24.5192   17.2522   66.3576 H           1 MOL       0.1858
     33 H13        27.5660   19.4812   67.2152 H           1 MOL       0.2127
     34 H14        21.9873   19.3114   70.4380 H           1 MOL       0.2100
     35 H15        21.1275   15.3583   68.3904 H           1 MOL       0.2101
     36 H16        18.3786   18.4829   70.3207 H           1 MOL       0.1995
     37 H17        18.7266   17.9827   68.7575 H           1 MOL       0.1995
     38 H18        19.6079   19.2316   69.4607 H           1 MOL       0.1995
@<TRIPOS>BOND
     1     1    14  ar
     2     1    13  ar
     3     1     2   1
     4     2    16   1
     5     2     3   2
     6     3     4   1
     7     4    15   1
     8     4     5   1
     9     5    12   1
    10     5     6   1
    11     6    16   1
    12     6     7   1
    13     7    17   1
    14     7     8   1
    15     8    18   1
    16     8     9   1
    17     9    19   1
    18    12    10  am
    19    10    20   2
    20    10    11   1
    21     3    21   1
    22     4    22   1
    23     5    23   1
    24     6    24   1
    25     7    25   1
    26     8    26   1
    27     9    27   1
    28     9    28   1
    29    11    29   1
    30    11    30   1
    31    11    31   1
    32    12    32   1
    33    15    33   1
    34    17    34   1
    35    18    35   1
    36    19    36   1
    37    19    37   1
    38    19    38   1
@<TRIPOS>SUBSTRUCTURE
     1  MOL      1

