@<TRIPOS>MOLECULE
1f8d_ligand_022
    38    38
SMALL
GAST_HUCK
****
This file was generated by PARSER (from files_GN.cpp)

@<TRIPOS>ATOM
      1 C1         24.3993   19.9465   65.6357 C.2         1 MOL       0.0809
      2 C2         23.9007   20.0974   66.9216 C.2         1 MOL       0.1088
      3 C3         23.6424   21.2854   67.5001 C.2         1 MOL      -0.0276
      4 C4         23.2017   21.3146   68.8834 C.3         1 MOL       0.1003
      5 C5         22.1503   20.1926   69.1876 C.3         1 MOL       0.1064
      6 C6         22.4466   18.8786   68.3509 C.3         1 MOL       0.1322
      7 C7         22.4761   17.5410   69.1769 C.3         1 MOL       0.1183
      8 C8         21.1536   16.7163   69.2633 C.3         1 MOL       0.1232
      9 C9         20.0420   17.2450   70.2131 C.3         1 MOL      -0.0062
     10 C10        20.1124   21.4764   69.7158 C.2         1 MOL       0.1734
     11 C11        18.7618   21.8289   69.3367 C.3         1 MOL       0.0257
     12 N5         20.8217   20.6801   68.9225 N.am        1 MOL      -0.2770
     13 O1A        24.7879   18.7218   65.2063 O.co2       1 MOL      -0.5623
     14 O1B        24.6367   20.9898   64.8064 O.co2       1 MOL      -0.5623
     15 O4         24.3512   21.1394   69.7091 O.3         1 MOL      -0.3807
     16 O6         23.7215   18.9864   67.6618 O.3         1 MOL      -0.3189
     17 O7         23.4815   16.6479   68.6808 O.3         1 MOL      -0.3860
     18 O8         20.6310   16.4471   67.9612 O.3         1 MOL      -0.3838
     19 N9         19.0127   18.0407   69.5382 N.4         1 MOL       0.2204
     20 O10        20.5630   21.9084   70.7669 O.2         1 MOL      -0.3974
     21 H1         23.7677   22.1380   67.0112 H           1 MOL       0.0480
     22 H2         22.7998   22.3009   69.1226 H           1 MOL       0.0740
     23 H3         22.2124   19.9543   70.2527 H           1 MOL       0.0632
     24 H4         21.6968   18.7703   67.5621 H           1 MOL       0.0697
     25 H5         22.8079   17.7631   70.1946 H           1 MOL       0.0652
     26 H6         21.4341   15.7338   69.6515 H           1 MOL       0.0674
     27 H7         20.4700   17.8232   71.0319 H           1 MOL       0.0840
     28 H8         19.5247   16.3867   70.6526 H           1 MOL       0.0840
     29 H9         18.2894   22.4671   70.0826 H           1 MOL       0.0467
     30 H10        18.1555   20.9308   69.2256 H           1 MOL       0.0467
     31 H11        18.7703   22.3635   68.3882 H           1 MOL       0.0467
     32 H12        20.3787   20.3583   68.1245 H           1 MOL       0.1858
     33 H13        24.9157   21.9275   69.5527 H           1 MOL       0.2127
     34 H14        23.1915   16.3595   67.7900 H           1 MOL       0.2100
     35 H15        19.9716   15.7299   68.0953 H           1 MOL       0.2101
     36 H16        18.2910   18.2792   70.2278 H           1 MOL       0.1995
     37 H17        18.5959   17.4951   68.7841 H           1 MOL       0.1995
     38 H18        19.4183   18.8875   69.1577 H           1 MOL       0.1995
@<TRIPOS>BOND
     1     1    14  ar
     2     1    13  ar
     3     1     2   1
     4     2    16   1
     5     2     3   2
     6     3     4   1
     7     4    15   1
     8     4     5   1
     9     5    12   1
    10     5     6   1
    11     6    16   1
    12     6     7   1
    13     7    17   1
    14     7     8   1
    15     8    18   1
    16     8     9   1
    17     9    19   1
    18    12    10  am
    19    10    20   2
    20    10    11   1
    21     3    21   1
    22     4    22   1
    23     5    23   1
    24     6    24   1
    25     7    25   1
    26     8    26   1
    27     9    27   1
    28     9    28   1
    29    11    29   1
    30    11    30   1
    31    11    31   1
    32    12    32   1
    33    15    33   1
    34    17    34   1
    35    18    35   1
    36    19    36   1
    37    19    37   1
    38    19    38   1
@<TRIPOS>SUBSTRUCTURE
     1  MOL      1

