@<TRIPOS>MOLECULE
1f8d_ligand_063
    38    38
SMALL
GAST_HUCK
****
This file was generated by PARSER (from files_GN.cpp)

@<TRIPOS>ATOM
      1 C1         28.1918   17.3212   65.8051 C.2         1 MOL       0.0809
      2 C2         26.9426   17.6549   66.2787 C.2         1 MOL       0.1088
      3 C3         26.7490   18.0093   67.5620 C.2         1 MOL      -0.0276
      4 C4         25.4523   18.4520   68.0519 C.3         1 MOL       0.1003
      5 C5         24.2723   18.0776   67.0891 C.3         1 MOL       0.1064
      6 C6         24.7179   18.2293   65.6010 C.3         1 MOL       0.1322
      7 C7         23.6504   17.8012   64.5286 C.3         1 MOL       0.1183
      8 C8         24.2594   17.1709   63.2279 C.3         1 MOL       0.1232
      9 C9         23.1814   16.7696   62.1800 C.3         1 MOL      -0.0062
     10 C10        22.1007   18.5740   68.1469 C.2         1 MOL       0.1734
     11 C11        21.0789   19.5681   68.3957 C.3         1 MOL       0.0257
     12 N5         23.1385   18.9007   67.3955 N.am        1 MOL      -0.2770
     13 O1A        28.6030   16.0315   65.9732 O.co2       1 MOL      -0.5623
     14 O1B        28.6158   17.9556   64.6777 O.co2       1 MOL      -0.5623
     15 O4         25.2093   17.8754   69.3313 O.3         1 MOL      -0.3807
     16 O6         25.9198   17.4688   65.4109 O.3         1 MOL      -0.3189
     17 O7         22.6774   16.9157   65.0959 O.3         1 MOL      -0.3860
     18 O8         25.1823   18.0894   62.6531 O.3         1 MOL      -0.3838
     19 N9         23.7036   16.7607   60.8034 N.4         1 MOL       0.2204
     20 O10        22.0021   17.4757   68.6808 O.2         1 MOL      -0.3974
     21 H1         27.5389   18.1052   68.1633 H           1 MOL       0.0480
     22 H2         25.5068   19.5355   68.1632 H           1 MOL       0.0740
     23 H3         24.0477   17.0163   67.2631 H           1 MOL       0.0632
     24 H4         24.9508   19.2779   65.4178 H           1 MOL       0.0697
     25 H5         23.0999   18.7048   64.2408 H           1 MOL       0.0652
     26 H6         24.8106   16.2695   63.4939 H           1 MOL       0.0674
     27 H7         22.3362   17.4650   62.2115 H           1 MOL       0.0840
     28 H8         22.8220   15.7602   62.3964 H           1 MOL       0.0840
     29 H9         20.3381   19.2108   69.1132 H           1 MOL       0.0467
     30 H10        20.5699   19.7999   67.4588 H           1 MOL       0.0467
     31 H11        21.5397   20.4773   68.7909 H           1 MOL       0.0467
     32 H12        23.1786   19.8180   67.0754 H           1 MOL       0.1858
     33 H13        25.9080   18.2301   69.9231 H           1 MOL       0.2127
     34 H14        22.0723   16.6536   64.3575 H           1 MOL       0.2100
     35 H15        24.6419   18.8631   62.4060 H           1 MOL       0.2101
     36 H16        22.9864   16.3858   60.1696 H           1 MOL       0.1995
     37 H17        24.5391   16.1735   60.7472 H           1 MOL       0.1995
     38 H18        23.9410   17.7110   60.5109 H           1 MOL       0.1995
@<TRIPOS>BOND
     1     1    14  ar
     2     1    13  ar
     3     1     2   1
     4     2    16   1
     5     2     3   2
     6     3     4   1
     7     4    15   1
     8     4     5   1
     9     5    12   1
    10     5     6   1
    11     6    16   1
    12     6     7   1
    13     7    17   1
    14     7     8   1
    15     8    18   1
    16     8     9   1
    17     9    19   1
    18    12    10  am
    19    10    20   2
    20    10    11   1
    21     3    21   1
    22     4    22   1
    23     5    23   1
    24     6    24   1
    25     7    25   1
    26     8    26   1
    27     9    27   1
    28     9    28   1
    29    11    29   1
    30    11    30   1
    31    11    31   1
    32    12    32   1
    33    15    33   1
    34    17    34   1
    35    18    35   1
    36    19    36   1
    37    19    37   1
    38    19    38   1
@<TRIPOS>SUBSTRUCTURE
     1  MOL      1

