@<TRIPOS>MOLECULE
1gpk_ligand_033
    37    39
SMALL
GAST_HUCK
****
This file was generated by PARSER (from files_GN.cpp)

@<TRIPOS>ATOM
      1 C1         -0.0593   62.7245   69.7635 C.2         1 HUP       0.2329
      2 O1         -0.7900   63.4517   69.1069 O.2         1 HUP      -0.3876
      3 N1          0.7465   61.8712   69.1358 N.am        1 HUP      -0.1804
      4 C2         -0.0429   62.7811   71.1247 C.2         1 HUP       0.0044
      5 C3          0.7720   61.9494   71.8059 C.2         1 HUP      -0.0667
      6 C4          1.5724   61.0126   71.1654 C.2         1 HUP      -0.0119
      7 C5          1.5766   61.0380   69.7997 C.2         1 HUP       0.1279
      8 C6          2.4468   60.1769   68.9990 C.3         1 HUP       0.0575
      9 C7          3.5569   59.4611   69.8292 C.3         1 HUP       0.0028
     10 C8          4.6522   60.3934   70.1185 C.2         1 HUP      -0.0963
     11 C9          3.2177   56.5361   70.5740 C.3         1 HUP      -0.0165
     12 C10         2.7936   57.6584   71.3867 C.2         1 HUP      -0.0578
     13 C11         2.9313   58.9681   71.0728 C.2         1 HUP      -0.0700
     14 C12         2.4765   60.0983   71.9302 C.3         1 HUP      -0.0531
     15 N2          1.7999   59.6440   73.1709 N.4         1 HUP       0.0987
     16 C13         3.7798   60.8721   72.3554 C.3         1 HUP      -0.0479
     17 C14         4.7577   61.0812   71.2766 C.2         1 HUP      -0.0960
     18 C15         5.8988   61.9584   71.4821 C.3         1 HUP      -0.0414
     19 H1          0.7412   61.8488   68.1663 H           1 HUP       0.2789
     20 H2         -0.6057   63.4422   71.6112 H           1 HUP       0.0519
     21 H3          0.7985   62.0364   72.7946 H           1 HUP       0.0683
     22 H4          2.9110   60.7677   68.2025 H           1 HUP       0.0669
     23 H5          1.8271   59.4196   68.5134 H           1 HUP       0.0669
     24 H6          3.9724   58.6573   69.2165 H           1 HUP       0.0532
     25 H7          5.3100   60.5658   69.3906 H           1 HUP       0.0261
     26 H8          2.7030   56.5561   69.6138 H           1 HUP       0.0514
     27 H9          2.9780   55.5908   71.0667 H           1 HUP       0.0514
     28 H10         4.2972   56.5715   70.4124 H           1 HUP       0.0514
     29 H11         2.3604   57.4188   72.2463 H           1 HUP       0.1006
     30 H12         1.6013   60.4432   73.7752 H           1 HUP       0.1917
     31 H13         2.4068   58.9950   73.6764 H           1 HUP       0.1917
     32 H14         0.9239   59.1728   72.9339 H           1 HUP       0.1917
     33 H15         4.2917   60.3118   73.1444 H           1 HUP       0.0233
     34 H16         3.5014   61.8408   72.7821 H           1 HUP       0.0233
     35 H17         6.8197   61.3866   71.3580 H           1 HUP       0.0377
     36 H18         5.9067   62.3979   72.4814 H           1 HUP       0.0377
     37 H19         5.8840   62.7693   70.7505 H           1 HUP       0.0377
@<TRIPOS>BOND
     1     4     1   1
     2     1     3  am
     3     1     2   2
     4     3     7   1
     5     7     8   1
     6     7     6   2
     7     6    14   1
     8     6     5   1
     9     5     4   2
    10    14    16   1
    11    14    15   1
    12    14    13   1
    13    13    12   2
    14    13     9   1
    15     9    10   1
    16     9     8   1
    17    10    17   2
    18    17    18   1
    19    16    17   1
    20    12    11   1
    21     3    19   1
    22     4    20   1
    23     5    21   1
    24     8    22   1
    25     8    23   1
    26     9    24   1
    27    10    25   1
    28    11    26   1
    29    11    27   1
    30    11    28   1
    31    12    29   1
    32    15    30   1
    33    15    31   1
    34    15    32   1
    35    16    33   1
    36    16    34   1
    37    18    35   1
    38    18    36   1
    39    18    37   1
@<TRIPOS>SUBSTRUCTURE
     1  HUP      1

