@<TRIPOS>MOLECULE
1gpk_ligand_023
    37    39
SMALL
GAST_HUCK
****
This file was generated by PARSER (from files_GN.cpp)

@<TRIPOS>ATOM
      1 C1          5.2253   69.6133   62.4906 C.2         1 HUP       0.2329
      2 O1          5.9146   69.9958   61.5570 O.2         1 HUP      -0.3876
      3 N1          4.0627   69.0191   62.2353 N.am        1 HUP      -0.1804
      4 C2          5.6250   69.7812   63.7808 C.2         1 HUP       0.0044
      5 C3          4.8198   69.3563   64.7766 C.2         1 HUP      -0.0667
      6 C4          3.5856   68.7710   64.5272 C.2         1 HUP      -0.0119
      7 C5          3.2559   68.5634   63.2184 C.2         1 HUP       0.1279
      8 C6          2.0340   67.8676   62.8205 C.3         1 HUP       0.0575
      9 C7          1.3146   67.1308   63.9941 C.3         1 HUP       0.0028
     10 C8          1.9888   65.8662   64.3183 C.2         1 HUP      -0.0963
     11 C9         -1.1540   68.3969   65.2305 C.3         1 HUP      -0.0165
     12 C10         0.2077   68.6012   65.6854 C.2         1 HUP      -0.0578
     13 C11         1.3206   68.0472   65.1498 C.2         1 HUP      -0.0700
     14 C12         2.7074   68.2846   65.6372 C.3         1 HUP      -0.0531
     15 N2          2.7650   69.2332   66.7753 N.4         1 HUP       0.0987
     16 C13         3.2255   66.8939   66.1589 C.3         1 HUP      -0.0479
     17 C14         2.9070   65.7423   65.3014 C.2         1 HUP      -0.0960
     18 C15         3.5227   64.4473   65.5625 C.3         1 HUP      -0.0414
     19 H1          3.7940   68.8928   61.3108 H           1 HUP       0.2789
     20 H2          6.5041   70.1956   63.9890 H           1 HUP       0.0519
     21 H3          5.1489   69.4508   65.7092 H           1 HUP       0.0683
     22 H4          2.2594   67.1481   62.0266 H           1 HUP       0.0669
     23 H5          1.3538   68.6117   62.3970 H           1 HUP       0.0669
     24 H6          0.3066   66.8811   63.6611 H           1 HUP       0.0532
     25 H7          1.7925   65.0805   63.7412 H           1 HUP       0.0261
     26 H8         -1.2566   68.7202   64.1934 H           1 HUP       0.0514
     27 H9         -1.8539   68.9784   65.8370 H           1 HUP       0.0514
     28 H10        -1.4245   67.3417   65.3116 H           1 HUP       0.0514
     29 H11         0.3083   69.2119   66.4608 H           1 HUP       0.1006
     30 H12         3.7150   69.2916   67.1414 H           1 HUP       0.1917
     31 H13         2.1385   68.9236   67.5194 H           1 HUP       0.1917
     32 H14         2.4747   70.1557   66.4635 H           1 HUP       0.1917
     33 H15         2.7838   66.6900   67.1401 H           1 HUP       0.0233
     34 H16         4.3087   66.9466   66.2981 H           1 HUP       0.0233
     35 H17         2.7538   63.7032   65.7792 H           1 HUP       0.0377
     36 H18         4.2071   64.4815   66.4138 H           1 HUP       0.0377
     37 H19         4.0875   64.1221   64.6867 H           1 HUP       0.0377
@<TRIPOS>BOND
     1     4     1   1
     2     1     3  am
     3     1     2   2
     4     3     7   1
     5     7     8   1
     6     7     6   2
     7     6    14   1
     8     6     5   1
     9     5     4   2
    10    14    16   1
    11    14    15   1
    12    14    13   1
    13    13    12   2
    14    13     9   1
    15     9    10   1
    16     9     8   1
    17    10    17   2
    18    17    18   1
    19    16    17   1
    20    12    11   1
    21     3    19   1
    22     4    20   1
    23     5    21   1
    24     8    22   1
    25     8    23   1
    26     9    24   1
    27    10    25   1
    28    11    26   1
    29    11    27   1
    30    11    28   1
    31    12    29   1
    32    15    30   1
    33    15    31   1
    34    15    32   1
    35    16    33   1
    36    16    34   1
    37    18    35   1
    38    18    36   1
    39    18    37   1
@<TRIPOS>SUBSTRUCTURE
     1  HUP      1

