@<TRIPOS>MOLECULE
1gpk_ligand_059
    37    39
SMALL
GAST_HUCK
****
This file was generated by PARSER (from files_GN.cpp)

@<TRIPOS>ATOM
      1 C1          3.8607   57.4541   70.1973 C.2         1 HUP       0.2329
      2 O1          4.3346   56.3434   70.0065 O.2         1 HUP      -0.3876
      3 N1          4.1124   58.0643   71.3499 N.am        1 HUP      -0.1804
      4 C2          3.1035   58.0878   69.2558 C.2         1 HUP       0.0044
      5 C3          2.6222   59.3182   69.5116 C.2         1 HUP      -0.0667
      6 C4          2.8496   59.9540   70.7180 C.2         1 HUP      -0.0119
      7 C5          3.6600   59.3117   71.6127 C.2         1 HUP       0.1279
      8 C6          4.0601   59.9220   72.8757 C.3         1 HUP       0.0575
      9 C7          3.7368   61.4459   72.9560 C.3         1 HUP       0.0028
     10 C8          4.7241   62.2190   72.1896 C.2         1 HUP      -0.0963
     11 C9          1.3355   62.3498   74.5829 C.3         1 HUP      -0.0165
     12 C10         1.3160   62.0427   73.1666 C.2         1 HUP      -0.0578
     13 C11         2.3743   61.6417   72.4240 C.2         1 HUP      -0.0700
     14 C12         2.3205   61.3290   70.9720 C.3         1 HUP      -0.0531
     15 N2          0.9568   61.4610   70.4016 N.4         1 HUP       0.0987
     16 C13         3.2319   62.3957   70.2589 C.3         1 HUP      -0.0479
     17 C14         4.5083   62.6692   70.9322 C.2         1 HUP      -0.0960
     18 C15         5.5240   63.4644   70.2593 C.3         1 HUP      -0.0414
     19 H1          4.6494   57.5937   72.0093 H           1 HUP       0.2789
     20 H2          2.9245   57.6689   68.3753 H           1 HUP       0.0519
     21 H3          2.1078   59.7718   68.7937 H           1 HUP       0.0683
     22 H4          5.1333   59.7694   73.0339 H           1 HUP       0.0669
     23 H5          3.5321   59.3993   73.6778 H           1 HUP       0.0669
     24 H6          3.8221   61.7488   73.9992 H           1 HUP       0.0532
     25 H7          5.6154   62.3636   72.6096 H           1 HUP       0.0261
     26 H8          1.6539   61.4762   75.1545 H           1 HUP       0.0514
     27 H9          0.3389   62.6359   74.9261 H           1 HUP       0.0514
     28 H10         2.0140   63.1820   74.7802 H           1 HUP       0.0514
     29 H11         0.4329   62.1357   72.7239 H           1 HUP       0.1006
     30 H12         0.9882   61.3440   69.3868 H           1 HUP       0.1917
     31 H13         0.5828   62.3891   70.6116 H           1 HUP       0.1917
     32 H14         0.3464   60.7481   70.8073 H           1 HUP       0.1917
     33 H15         2.6972   63.3489   70.2007 H           1 HUP       0.0233
     34 H16         3.4293   62.0731   69.2303 H           1 HUP       0.0233
     35 H17         5.7469   64.3645   70.8373 H           1 HUP       0.0377
     36 H18         5.2131   63.7755   69.2589 H           1 HUP       0.0377
     37 H19         6.4299   62.8668   70.1618 H           1 HUP       0.0377
@<TRIPOS>BOND
     1     4     1   1
     2     1     3  am
     3     1     2   2
     4     3     7   1
     5     7     8   1
     6     7     6   2
     7     6    14   1
     8     6     5   1
     9     5     4   2
    10    14    16   1
    11    14    15   1
    12    14    13   1
    13    13    12   2
    14    13     9   1
    15     9    10   1
    16     9     8   1
    17    10    17   2
    18    17    18   1
    19    16    17   1
    20    12    11   1
    21     3    19   1
    22     4    20   1
    23     5    21   1
    24     8    22   1
    25     8    23   1
    26     9    24   1
    27    10    25   1
    28    11    26   1
    29    11    27   1
    30    11    28   1
    31    12    29   1
    32    15    30   1
    33    15    31   1
    34    15    32   1
    35    16    33   1
    36    16    34   1
    37    18    35   1
    38    18    36   1
    39    18    37   1
@<TRIPOS>SUBSTRUCTURE
     1  HUP      1

