@<TRIPOS>MOLECULE
1gpk_ligand_005
    37    39
SMALL
GAST_HUCK
****
This file was generated by PARSER (from files_GN.cpp)

@<TRIPOS>ATOM
      1 C1          0.5498   67.8060   61.6421 C.2         1 HUP       0.2329
      2 O1         -0.6273   68.0429   61.4187 O.2         1 HUP      -0.3876
      3 N1          0.9542   67.6582   62.9011 N.am        1 HUP      -0.1804
      4 C2          1.4518   67.6803   60.6292 C.2         1 HUP       0.0044
      5 C3          2.7438   67.4359   60.9283 C.2         1 HUP      -0.0667
      6 C4          3.1896   67.3300   62.2401 C.2         1 HUP      -0.0119
      7 C5          2.2395   67.3905   63.2199 C.2         1 HUP       0.1279
      8 C6          2.5564   67.1892   64.6324 C.3         1 HUP       0.0575
      9 C7          3.9805   66.6016   64.8851 C.3         1 HUP       0.0028
     10 C8          4.0108   65.1572   64.6231 C.2         1 HUP      -0.0963
     11 C9          6.1932   68.4554   65.8192 C.3         1 HUP      -0.0165
     12 C10         5.8919   68.1454   64.4351 C.2         1 HUP      -0.0578
     13 C11         4.9119   67.3212   63.9945 C.2         1 HUP      -0.0700
     14 C12         4.6192   67.0304   62.5613 C.3         1 HUP      -0.0531
     15 N2          5.5156   67.7786   61.6423 N.4         1 HUP       0.0987
     16 C13         4.8854   65.4915   62.3621 C.3         1 HUP      -0.0479
     17 C14         4.4049   64.6208   63.4470 C.2         1 HUP      -0.0960
     18 C15         4.4389   63.1729   63.2877 C.3         1 HUP      -0.0414
     19 H1          0.2996   67.7353   63.6141 H           1 HUP       0.2789
     20 H2          1.1606   67.7454   59.6800 H           1 HUP       0.0519
     21 H3          3.3786   67.3124   60.1740 H           1 HUP       0.0683
     22 H4          1.8079   66.5304   65.0854 H           1 HUP       0.0669
     23 H5          2.4770   68.1594   65.1325 H           1 HUP       0.0669
     24 H6          4.2150   66.7379   65.9441 H           1 HUP       0.0532
     25 H7          3.6810   64.5544   65.3433 H           1 HUP       0.0261
     26 H8          5.3267   68.9066   66.3068 H           1 HUP       0.0514
     27 H9          7.0247   69.1612   65.8830 H           1 HUP       0.0514
     28 H10         6.4791   67.5475   66.3516 H           1 HUP       0.0514
     29 H11         6.4720   68.5922   63.7657 H           1 HUP       0.1006
     30 H12         5.3672   67.5091   60.6689 H           1 HUP       0.1917
     31 H13         6.4907   67.5842   61.8794 H           1 HUP       0.1917
     32 H14         5.3431   68.7815   61.7389 H           1 HUP       0.1917
     33 H15         5.9602   65.3245   62.2758 H           1 HUP       0.0233
     34 H16         4.4402   65.1657   61.4180 H           1 HUP       0.0233
     35 H17         5.1026   62.7315   64.0350 H           1 HUP       0.0377
     36 H18         4.8012   62.8785   62.3005 H           1 HUP       0.0377
     37 H19         3.4359   62.7610   63.4186 H           1 HUP       0.0377
@<TRIPOS>BOND
     1     4     1   1
     2     1     3  am
     3     1     2   2
     4     3     7   1
     5     7     8   1
     6     7     6   2
     7     6    14   1
     8     6     5   1
     9     5     4   2
    10    14    16   1
    11    14    15   1
    12    14    13   1
    13    13    12   2
    14    13     9   1
    15     9    10   1
    16     9     8   1
    17    10    17   2
    18    17    18   1
    19    16    17   1
    20    12    11   1
    21     3    19   1
    22     4    20   1
    23     5    21   1
    24     8    22   1
    25     8    23   1
    26     9    24   1
    27    10    25   1
    28    11    26   1
    29    11    27   1
    30    11    28   1
    31    12    29   1
    32    15    30   1
    33    15    31   1
    34    15    32   1
    35    16    33   1
    36    16    34   1
    37    18    35   1
    38    18    36   1
    39    18    37   1
@<TRIPOS>SUBSTRUCTURE
     1  HUP      1

