@<TRIPOS>MOLECULE
1gpk_ligand_004
    37    39
SMALL
GAST_HUCK
****
This file was generated by PARSER (from files_GN.cpp)

@<TRIPOS>ATOM
      1 C1          4.3315   69.3896   60.8855 C.2         1 HUP       0.2329
      2 O1          4.0083   69.4819   59.7101 O.2         1 HUP      -0.3876
      3 N1          3.4241   69.0346   61.7924 N.am        1 HUP      -0.1804
      4 C2          5.6146   69.6248   61.2799 C.2         1 HUP       0.0044
      5 C3          5.9219   69.5504   62.5918 C.2         1 HUP      -0.0667
      6 C4          4.9668   69.2577   63.5581 C.2         1 HUP      -0.0119
      7 C5          3.7165   68.9448   63.1086 C.2         1 HUP       0.1279
      8 C6          2.6431   68.5376   64.0140 C.3         1 HUP       0.0575
      9 C7          3.1312   68.1785   65.4520 C.3         1 HUP       0.0028
     10 C8          3.7437   66.8439   65.4715 C.2         1 HUP      -0.0963
     11 C9          2.7147   70.1621   67.7102 C.3         1 HUP      -0.0165
     12 C10         3.8985   70.0823   66.8765 C.2         1 HUP      -0.0578
     13 C11         4.1005   69.2152   65.8559 C.2         1 HUP      -0.0700
     14 C12         5.3240   69.1693   65.0083 C.3         1 HUP      -0.0531
     15 N2          6.3163   70.2180   65.3595 N.4         1 HUP       0.0987
     16 C13         5.9989   67.7801   65.3041 C.3         1 HUP      -0.0479
     17 C14         5.0761   66.6383   65.3696 C.2         1 HUP      -0.0960
     18 C15         5.6074   65.2849   65.4108 C.3         1 HUP      -0.0414
     19 H1          2.5174   68.8421   61.4980 H           1 HUP       0.2789
     20 H2          6.3206   69.8269   60.6075 H           1 HUP       0.0519
     21 H3          6.8684   69.6943   62.8483 H           1 HUP       0.0683
     22 H4          2.1062   67.6826   63.5881 H           1 HUP       0.0669
     23 H5          1.9327   69.3658   64.0758 H           1 HUP       0.0669
     24 H6          2.2545   68.1364   66.1042 H           1 HUP       0.0532
     25 H7          3.1321   66.0578   65.5032 H           1 HUP       0.0261
     26 H8          1.8341   70.3572   67.0956 H           1 HUP       0.0514
     27 H9          2.8092   70.9753   68.4350 H           1 HUP       0.0514
     28 H10         2.5743   69.2315   68.2626 H           1 HUP       0.0514
     29 H11         4.6083   70.7444   67.0842 H           1 HUP       0.1006
     30 H12         7.1811   70.0710   64.8355 H           1 HUP       0.1917
     31 H13         6.5304   70.1696   66.3580 H           1 HUP       0.1917
     32 H14         5.9428   71.1427   65.1403 H           1 HUP       0.1917
     33 H15         6.5121   67.8263   66.2705 H           1 HUP       0.0233
     34 H16         6.7633   67.5855   64.5451 H           1 HUP       0.0233
     35 H17         5.3072   64.7926   66.3389 H           1 HUP       0.0377
     36 H18         6.6993   65.2728   65.3628 H           1 HUP       0.0377
     37 H19         5.2262   64.7107   64.5630 H           1 HUP       0.0377
@<TRIPOS>BOND
     1     4     1   1
     2     1     3  am
     3     1     2   2
     4     3     7   1
     5     7     8   1
     6     7     6   2
     7     6    14   1
     8     6     5   1
     9     5     4   2
    10    14    16   1
    11    14    15   1
    12    14    13   1
    13    13    12   2
    14    13     9   1
    15     9    10   1
    16     9     8   1
    17    10    17   2
    18    17    18   1
    19    16    17   1
    20    12    11   1
    21     3    19   1
    22     4    20   1
    23     5    21   1
    24     8    22   1
    25     8    23   1
    26     9    24   1
    27    10    25   1
    28    11    26   1
    29    11    27   1
    30    11    28   1
    31    12    29   1
    32    15    30   1
    33    15    31   1
    34    15    32   1
    35    16    33   1
    36    16    34   1
    37    18    35   1
    38    18    36   1
    39    18    37   1
@<TRIPOS>SUBSTRUCTURE
     1  HUP      1

