@<TRIPOS>MOLECULE
1gpk_ligand_010
    37    39
SMALL
GAST_HUCK
****
This file was generated by PARSER (from files_GN.cpp)

@<TRIPOS>ATOM
      1 C1          0.1707   68.8446   60.6197 C.2         1 HUP       0.2329
      2 O1         -0.6460   69.1508   59.7634 O.2         1 HUP      -0.3876
      3 N1         -0.2178   68.7540   61.8903 N.am        1 HUP      -0.1804
      4 C2          1.4770   68.6201   60.3050 C.2         1 HUP       0.0044
      5 C3          2.3631   68.3912   61.2948 C.2         1 HUP      -0.0667
      6 C4          1.9839   68.3635   62.6298 C.2         1 HUP      -0.0119
      7 C5          0.6487   68.4840   62.8930 C.2         1 HUP       0.1279
      8 C6          0.1023   68.3612   64.2438 C.3         1 HUP       0.0575
      9 C7          1.1159   67.7884   65.2851 C.3         1 HUP       0.0028
     10 C8          1.2396   66.3312   65.1408 C.2         1 HUP      -0.0963
     11 C9          2.4830   69.6847   67.2279 C.3         1 HUP      -0.0165
     12 C10         2.9987   69.3056   65.9266 C.2         1 HUP      -0.0578
     13 C11         2.4094   68.4596   65.0487 C.2         1 HUP      -0.0700
     14 C12         2.9714   68.0882   63.7202 C.3         1 HUP      -0.0531
     15 N2          4.2557   68.7706   63.4240 N.4         1 HUP       0.0987
     16 C13         3.2665   66.5441   63.7884 C.3         1 HUP      -0.0479
     17 C14         2.2166   65.7335   64.4235 C.2         1 HUP      -0.0960
     18 C15         2.2781   64.2799   64.3487 C.3         1 HUP      -0.0414
     19 H1         -1.1544   68.8913   62.1035 H           1 HUP       0.2789
     20 H2          1.7725   68.6041   59.3560 H           1 HUP       0.0519
     21 H3          3.3066   68.2143   61.0386 H           1 HUP       0.0683
     22 H4         -0.7907   67.7294   64.2211 H           1 HUP       0.0669
     23 H5         -0.2164   69.3559   64.5664 H           1 HUP       0.0669
     24 H6          0.7168   67.9780   66.2845 H           1 HUP       0.0532
     25 H7          0.5218   65.7696   65.5422 H           1 HUP       0.0261
     26 H8          1.5133   70.1741   67.1224 H           1 HUP       0.0514
     27 H9          3.1629   70.3824   67.7228 H           1 HUP       0.0514
     28 H10         2.3802   68.8040   67.8643 H           1 HUP       0.0514
     29 H11         3.8644   69.7211   65.6773 H           1 HUP       0.1006
     30 H12         4.6537   68.4075   62.5561 H           1 HUP       0.1917
     31 H13         4.9182   68.6008   64.1839 H           1 HUP       0.1917
     32 H14         4.1026   69.7765   63.3300 H           1 HUP       0.1917
     33 H15         4.1855   66.3773   64.3594 H           1 HUP       0.0233
     34 H16         3.4477   66.1682   62.7765 H           1 HUP       0.0233
     35 H17         2.3912   63.8577   65.3484 H           1 HUP       0.0377
     36 H18         3.1180   63.9347   63.7423 H           1 HUP       0.0377
     37 H19         1.3602   63.8922   63.9056 H           1 HUP       0.0377
@<TRIPOS>BOND
     1     4     1   1
     2     1     3  am
     3     1     2   2
     4     3     7   1
     5     7     8   1
     6     7     6   2
     7     6    14   1
     8     6     5   1
     9     5     4   2
    10    14    16   1
    11    14    15   1
    12    14    13   1
    13    13    12   2
    14    13     9   1
    15     9    10   1
    16     9     8   1
    17    10    17   2
    18    17    18   1
    19    16    17   1
    20    12    11   1
    21     3    19   1
    22     4    20   1
    23     5    21   1
    24     8    22   1
    25     8    23   1
    26     9    24   1
    27    10    25   1
    28    11    26   1
    29    11    27   1
    30    11    28   1
    31    12    29   1
    32    15    30   1
    33    15    31   1
    34    15    32   1
    35    16    33   1
    36    16    34   1
    37    18    35   1
    38    18    36   1
    39    18    37   1
@<TRIPOS>SUBSTRUCTURE
     1  HUP      1

