@<TRIPOS>MOLECULE
1gpk_ligand_011
    37    39
SMALL
GAST_HUCK
****
This file was generated by PARSER (from files_GN.cpp)

@<TRIPOS>ATOM
      1 C1          4.3327   64.5444   66.1996 C.2         1 HUP       0.2329
      2 O1          4.4384   63.4098   66.6375 O.2         1 HUP      -0.3876
      3 N1          3.1159   65.0625   66.0488 N.am        1 HUP      -0.1804
      4 C2          5.4266   65.3076   65.9155 C.2         1 HUP       0.0044
      5 C3          5.2489   66.5584   65.4498 C.2         1 HUP      -0.0667
      6 C4          3.9872   67.0881   65.2305 C.2         1 HUP      -0.0119
      7 C5          2.9192   66.3206   65.6030 C.2         1 HUP       0.1279
      8 C6          1.5420   66.7967   65.5197 C.3         1 HUP       0.0575
      9 C7          1.4222   68.3365   65.2787 C.3         1 HUP       0.0028
     10 C8          1.6671   69.0815   66.5217 C.2         1 HUP      -0.0963
     11 C9          0.7532   69.3219   62.4818 C.3         1 HUP      -0.0165
     12 C10         2.0916   69.1111   62.9988 C.2         1 HUP      -0.0578
     13 C11         2.4127   68.6895   64.2431 C.2         1 HUP      -0.0700
     14 C12         3.8039   68.4865   64.7365 C.3         1 HUP      -0.0531
     15 N2          4.8310   68.7898   63.7087 N.4         1 HUP       0.0987
     16 C13         4.0074   69.4955   65.9271 C.3         1 HUP      -0.0479
     17 C14         2.8660   69.6096   66.8509 C.2         1 HUP      -0.0960
     18 C15         3.0066   70.3605   68.0921 C.3         1 HUP      -0.0414
     19 H1          2.3467   64.5248   66.2913 H           1 HUP       0.2789
     20 H2          6.3432   64.9730   66.1053 H           1 HUP       0.0519
     21 H3          6.0583   67.1169   65.2995 H           1 HUP       0.0683
     22 H4          1.0053   66.5292   66.4376 H           1 HUP       0.0669
     23 H5          1.0579   66.2658   64.6949 H           1 HUP       0.0669
     24 H6          0.3957   68.5502   64.9713 H           1 HUP       0.0532
     25 H7          0.9110   69.1524   67.1669 H           1 HUP       0.0261
     26 H8          0.1910   68.3858   62.4998 H           1 HUP       0.0514
     27 H9          0.7954   69.6728   61.4474 H           1 HUP       0.0514
     28 H10         0.2318   70.0757   63.0723 H           1 HUP       0.0514
     29 H11         2.8259   69.2916   62.3574 H           1 HUP       0.1006
     30 H12         5.7656   68.7427   64.1180 H           1 HUP       0.1917
     31 H13         4.6828   69.7339   63.3418 H           1 HUP       0.1917
     32 H14         4.7618   68.1153   62.9441 H           1 HUP       0.1917
     33 H15         4.1917   70.4915   65.5158 H           1 HUP       0.0233
     34 H16         4.9012   69.2133   66.4952 H           1 HUP       0.0233
     35 H17         2.3023   71.1948   68.1054 H           1 HUP       0.0377
     36 H18         4.0126   70.7681   68.2120 H           1 HUP       0.0377
     37 H19         2.8007   69.7115   68.9461 H           1 HUP       0.0377
@<TRIPOS>BOND
     1     4     1   1
     2     1     3  am
     3     1     2   2
     4     3     7   1
     5     7     8   1
     6     7     6   2
     7     6    14   1
     8     6     5   1
     9     5     4   2
    10    14    16   1
    11    14    15   1
    12    14    13   1
    13    13    12   2
    14    13     9   1
    15     9    10   1
    16     9     8   1
    17    10    17   2
    18    17    18   1
    19    16    17   1
    20    12    11   1
    21     3    19   1
    22     4    20   1
    23     5    21   1
    24     8    22   1
    25     8    23   1
    26     9    24   1
    27    10    25   1
    28    11    26   1
    29    11    27   1
    30    11    28   1
    31    12    29   1
    32    15    30   1
    33    15    31   1
    34    15    32   1
    35    16    33   1
    36    16    34   1
    37    18    35   1
    38    18    36   1
    39    18    37   1
@<TRIPOS>SUBSTRUCTURE
     1  HUP      1

