@<TRIPOS>MOLECULE
1gpk_ligand_042
    37    39
SMALL
GAST_HUCK
****
This file was generated by PARSER (from files_GN.cpp)

@<TRIPOS>ATOM
      1 C1          2.8557   56.8103   74.4883 C.2         1 HUP       0.2329
      2 O1          2.5954   55.7802   75.0926 O.2         1 HUP      -0.3876
      3 N1          2.4195   56.9584   73.2402 N.am        1 HUP      -0.1804
      4 C2          3.5637   57.8144   75.0759 C.2         1 HUP       0.0044
      5 C3          3.8263   58.9323   74.3667 C.2         1 HUP      -0.0667
      6 C4          3.4196   59.0819   73.0480 C.2         1 HUP      -0.0119
      7 C5          2.6555   58.0795   72.5228 C.2         1 HUP       0.1279
      8 C6          2.0760   58.1586   71.1838 C.3         1 HUP       0.0575
      9 C7          2.1501   59.5820   70.5449 C.3         1 HUP       0.0028
     10 C8          1.1149   60.4637   71.1037 C.2         1 HUP      -0.0963
     11 C9          4.2611   60.1309   68.4377 C.3         1 HUP      -0.0165
     12 C10         4.4287   60.3479   69.8607 C.2         1 HUP      -0.0578
     13 C11         3.5011   60.1090   70.8169 C.2         1 HUP      -0.0700
     14 C12         3.7065   60.3306   72.2743 C.3         1 HUP      -0.0531
     15 N2          5.0726   60.8142   72.5935 N.4         1 HUP       0.0987
     16 C13         2.6916   61.4603   72.6881 C.3         1 HUP      -0.0479
     17 C14         1.3402   61.3249   72.1198 C.2         1 HUP      -0.0960
     18 C15         0.2601   62.1761   72.6022 C.3         1 HUP      -0.0414
     19 H1          1.8986   56.2444   72.8381 H           1 HUP       0.2789
     20 H2          3.8686   57.7372   76.0194 H           1 HUP       0.0519
     21 H3          4.3116   59.6660   74.8250 H           1 HUP       0.0683
     22 H4          1.0329   57.8308   71.2217 H           1 HUP       0.0669
     23 H5          2.6152   57.4521   70.5457 H           1 HUP       0.0669
     24 H6          1.9462   59.4835   69.4768 H           1 HUP       0.0532
     25 H7          0.1913   60.3727   70.7408 H           1 HUP       0.0261
     26 H8          4.0434   59.0794   68.2390 H           1 HUP       0.0514
     27 H9          5.1727   60.3925   67.8966 H           1 HUP       0.0514
     28 H10         3.4501   60.7544   68.0565 H           1 HUP       0.0514
     29 H11         5.3160   60.6960   70.1345 H           1 HUP       0.1006
     30 H12         5.1320   61.0539   73.5829 H           1 HUP       0.1917
     31 H13         5.2814   61.6490   72.0415 H           1 HUP       0.1917
     32 H14         5.7570   60.0847   72.3799 H           1 HUP       0.1917
     33 H15         3.0788   62.4299   72.3596 H           1 HUP       0.0233
     34 H16         2.6224   61.4990   73.7795 H           1 HUP       0.0233
     35 H17        -0.1324   62.7843   71.7842 H           1 HUP       0.0377
     36 H18         0.5934   62.8517   73.3928 H           1 HUP       0.0377
     37 H19        -0.5470   61.5590   73.0025 H           1 HUP       0.0377
@<TRIPOS>BOND
     1     4     1   1
     2     1     3  am
     3     1     2   2
     4     3     7   1
     5     7     8   1
     6     7     6   2
     7     6    14   1
     8     6     5   1
     9     5     4   2
    10    14    16   1
    11    14    15   1
    12    14    13   1
    13    13    12   2
    14    13     9   1
    15     9    10   1
    16     9     8   1
    17    10    17   2
    18    17    18   1
    19    16    17   1
    20    12    11   1
    21     3    19   1
    22     4    20   1
    23     5    21   1
    24     8    22   1
    25     8    23   1
    26     9    24   1
    27    10    25   1
    28    11    26   1
    29    11    27   1
    30    11    28   1
    31    12    29   1
    32    15    30   1
    33    15    31   1
    34    15    32   1
    35    16    33   1
    36    16    34   1
    37    18    35   1
    38    18    36   1
    39    18    37   1
@<TRIPOS>SUBSTRUCTURE
     1  HUP      1

