@<TRIPOS>MOLECULE
1gpk_ligand_056
    37    39
SMALL
GAST_HUCK
****
This file was generated by PARSER (from files_GN.cpp)

@<TRIPOS>ATOM
      1 C1         -0.8501   65.3980   69.0959 C.2         1 HUP       0.2329
      2 O1         -1.1361   64.3869   69.7197 O.2         1 HUP      -0.3876
      3 N1          0.4320   65.6660   68.8568 N.am        1 HUP      -0.1804
      4 C2         -1.8129   66.2228   68.5918 C.2         1 HUP       0.0044
      5 C3         -1.4375   67.3149   67.8958 C.2         1 HUP      -0.0667
      6 C4         -0.1036   67.6420   67.7002 C.2         1 HUP      -0.0119
      7 C5          0.8206   66.7316   68.1219 C.2         1 HUP       0.1279
      8 C6          2.2394   66.8667   67.8094 C.3         1 HUP       0.0575
      9 C7          2.5634   68.0047   66.7863 C.3         1 HUP       0.0028
     10 C8          2.2720   67.5904   65.4070 C.2         1 HUP      -0.0963
     11 C9          3.6650   70.6415   67.8455 C.3         1 HUP      -0.0165
     12 C10         2.2621   70.3454   67.6105 C.2         1 HUP      -0.0578
     13 C11         1.7483   69.1703   67.1724 C.2         1 HUP      -0.0700
     14 C12         0.2965   68.8912   66.9872 C.3         1 HUP      -0.0531
     15 N2         -0.5596   69.9887   67.5026 N.4         1 HUP       0.0987
     16 C13         0.0791   68.6908   65.4395 C.3         1 HUP      -0.0479
     17 C14         1.1189   67.8874   64.7672 C.2         1 HUP      -0.0960
     18 C15         0.9437   67.4616   63.3835 C.3         1 HUP      -0.0414
     19 H1          1.1038   65.0488   69.1917 H           1 HUP       0.2789
     20 H2         -2.7799   66.0344   68.7320 H           1 HUP       0.0519
     21 H3         -2.1533   67.9051   67.5328 H           1 HUP       0.0683
     22 H4          2.6226   65.9161   67.4244 H           1 HUP       0.0669
     23 H5          2.7497   67.0753   68.7519 H           1 HUP       0.0669
     24 H6          3.6354   68.2127   66.8253 H           1 HUP       0.0532
     25 H7          2.9525   67.0255   64.9491 H           1 HUP       0.0261
     26 H8          4.0453   69.9804   68.6244 H           1 HUP       0.0514
     27 H9          3.7919   71.6725   68.1932 H           1 HUP       0.0514
     28 H10         4.2433   70.5097   66.9232 H           1 HUP       0.0514
     29 H11         1.6401   71.0919   67.8139 H           1 HUP       0.1006
     30 H12        -1.5247   69.8658   67.1869 H           1 HUP       0.1917
     31 H13        -0.2255   70.9051   67.1982 H           1 HUP       0.1917
     32 H14        -0.5273   69.9646   68.5266 H           1 HUP       0.1917
     33 H15         0.0569   69.6680   64.9503 H           1 HUP       0.0233
     34 H16        -0.8967   68.2265   65.2623 H           1 HUP       0.0233
     35 H17         1.7194   67.9071   62.7545 H           1 HUP       0.0377
     36 H18        -0.0282   67.7542   62.9817 H           1 HUP       0.0377
     37 H19         1.0246   66.3736   63.3163 H           1 HUP       0.0377
@<TRIPOS>BOND
     1     4     1   1
     2     1     3  am
     3     1     2   2
     4     3     7   1
     5     7     8   1
     6     7     6   2
     7     6    14   1
     8     6     5   1
     9     5     4   2
    10    14    16   1
    11    14    15   1
    12    14    13   1
    13    13    12   2
    14    13     9   1
    15     9    10   1
    16     9     8   1
    17    10    17   2
    18    17    18   1
    19    16    17   1
    20    12    11   1
    21     3    19   1
    22     4    20   1
    23     5    21   1
    24     8    22   1
    25     8    23   1
    26     9    24   1
    27    10    25   1
    28    11    26   1
    29    11    27   1
    30    11    28   1
    31    12    29   1
    32    15    30   1
    33    15    31   1
    34    15    32   1
    35    16    33   1
    36    16    34   1
    37    18    35   1
    38    18    36   1
    39    18    37   1
@<TRIPOS>SUBSTRUCTURE
     1  HUP      1

