@<TRIPOS>MOLECULE
1gpk_ligand_046
    37    39
SMALL
GAST_HUCK
****
This file was generated by PARSER (from files_GN.cpp)

@<TRIPOS>ATOM
      1 C1         -1.6902   59.6900   72.7179 C.2         1 HUP       0.2329
      2 O1         -2.7987   60.1438   72.9668 O.2         1 HUP      -0.3876
      3 N1         -0.7456   60.4971   72.2446 N.am        1 HUP      -0.1804
      4 C2         -1.4014   58.3738   72.9233 C.2         1 HUP       0.0044
      5 C3         -0.1783   57.9116   72.5982 C.2         1 HUP      -0.0667
      6 C4          0.7985   58.7278   72.0392 C.2         1 HUP      -0.0119
      7 C5          0.4951   60.0566   71.9350 C.2         1 HUP       0.1279
      8 C6          1.4704   61.0441   71.4720 C.3         1 HUP       0.0575
      9 C7          2.9359   60.5071   71.4147 C.3         1 HUP       0.0028
     10 C8          3.5303   60.4696   72.7610 C.2         1 HUP      -0.0963
     11 C9          4.1077   59.7626   68.7052 C.3         1 HUP      -0.0165
     12 C10         3.4133   58.8537   69.6031 C.2         1 HUP      -0.0578
     13 C11         2.8820   59.1642   70.8115 C.2         1 HUP      -0.0700
     14 C12         2.1588   58.2076   71.6967 C.3         1 HUP      -0.0531
     15 N2          2.0670   56.8354   71.1291 N.4         1 HUP       0.0987
     16 C13         3.0254   58.0945   73.0059 C.3         1 HUP      -0.0479
     17 C14         3.5533   59.3587   73.5335 C.2         1 HUP      -0.0960
     18 C15         4.1987   59.3819   74.8407 C.3         1 HUP      -0.0414
     19 H1         -0.9557   61.4391   72.1247 H           1 HUP       0.2789
     20 H2         -2.0788   57.7638   73.3250 H           1 HUP       0.0519
     21 H3          0.0181   56.9553   72.7854 H           1 HUP       0.0683
     22 H4          1.4365   61.9289   72.1168 H           1 HUP       0.0669
     23 H5          1.1701   61.3646   70.4693 H           1 HUP       0.0669
     24 H6          3.5282   61.2096   70.8232 H           1 HUP       0.0532
     25 H7          3.8911   61.3219   73.1287 H           1 HUP       0.0261
     26 H8          3.4434   60.5703   68.3948 H           1 HUP       0.0514
     27 H9          4.4475   59.2392   67.8108 H           1 HUP       0.0514
     28 H10         4.9848   60.1879   69.1966 H           1 HUP       0.0514
     29 H11         3.3312   57.9188   69.2778 H           1 HUP       0.1006
     30 H12         1.5945   56.2138   71.7838 H           1 HUP       0.1917
     31 H13         3.0063   56.4652   70.9527 H           1 HUP       0.1917
     32 H14         1.5500   56.8530   70.2497 H           1 HUP       0.1917
     33 H15         3.8946   57.4661   72.7974 H           1 HUP       0.0233
     34 H16         2.4406   57.5915   73.7826 H           1 HUP       0.0233
     35 H17         5.2481   59.6628   74.7356 H           1 HUP       0.0377
     36 H18         4.1657   58.4086   75.3350 H           1 HUP       0.0377
     37 H19         3.7006   60.1051   75.4934 H           1 HUP       0.0377
@<TRIPOS>BOND
     1     4     1   1
     2     1     3  am
     3     1     2   2
     4     3     7   1
     5     7     8   1
     6     7     6   2
     7     6    14   1
     8     6     5   1
     9     5     4   2
    10    14    16   1
    11    14    15   1
    12    14    13   1
    13    13    12   2
    14    13     9   1
    15     9    10   1
    16     9     8   1
    17    10    17   2
    18    17    18   1
    19    16    17   1
    20    12    11   1
    21     3    19   1
    22     4    20   1
    23     5    21   1
    24     8    22   1
    25     8    23   1
    26     9    24   1
    27    10    25   1
    28    11    26   1
    29    11    27   1
    30    11    28   1
    31    12    29   1
    32    15    30   1
    33    15    31   1
    34    15    32   1
    35    16    33   1
    36    16    34   1
    37    18    35   1
    38    18    36   1
    39    18    37   1
@<TRIPOS>SUBSTRUCTURE
     1  HUP      1

