@<TRIPOS>MOLECULE
1gpk_ligand_051
    37    39
SMALL
GAST_HUCK
****
This file was generated by PARSER (from files_GN.cpp)

@<TRIPOS>ATOM
      1 C1          2.7386   56.6703   70.4303 C.2         1 HUP       0.2329
      2 O1          2.5197   55.6134   69.8593 O.2         1 HUP      -0.3876
      3 N1          1.7233   57.3682   70.9304 N.am        1 HUP      -0.1804
      4 C2          4.0047   57.1411   70.5701 C.2         1 HUP       0.0044
      5 C3          4.2005   58.3172   71.1996 C.2         1 HUP      -0.0667
      6 C4          3.1489   59.0813   71.6816 C.2         1 HUP      -0.0119
      7 C5          1.9002   58.5396   71.5780 C.2         1 HUP       0.1279
      8 C6          0.7169   59.1924   72.1328 C.3         1 HUP       0.0575
      9 C7          1.0423   60.3748   73.1002 C.3         1 HUP       0.0028
     10 C8          1.4563   59.8757   74.4189 C.2         1 HUP      -0.0963
     11 C9          0.7475   63.2224   72.0903 C.3         1 HUP      -0.0165
     12 C10         1.9639   62.4365   72.0265 C.2         1 HUP      -0.0578
     13 C11         2.1170   61.1667   72.4703 C.2         1 HUP      -0.0700
     14 C12         3.3800   60.3824   72.3817 C.3         1 HUP      -0.0531
     15 N2          4.4759   61.1273   71.7116 N.4         1 HUP       0.0987
     16 C13         3.8265   60.1112   73.8652 C.3         1 HUP      -0.0479
     17 C14         2.7477   59.7197   74.7851 C.2         1 HUP      -0.0960
     18 C15         3.0684   59.2323   76.1200 C.3         1 HUP      -0.0414
     19 H1          0.8283   57.0126   70.8376 H           1 HUP       0.2789
     20 H2          4.7750   56.6107   70.2346 H           1 HUP       0.0519
     21 H3          5.1331   58.6273   71.3258 H           1 HUP       0.0683
     22 H4          0.1026   58.4537   72.6568 H           1 HUP       0.0669
     23 H5          0.1221   59.5708   71.2966 H           1 HUP       0.0669
     24 H6          0.1247   60.9487   73.2496 H           1 HUP       0.0532
     25 H7          0.7375   59.5926   75.0473 H           1 HUP       0.0261
     26 H8         -0.0525   62.7272   71.5370 H           1 HUP       0.0514
     27 H9          0.9040   64.2090   71.6486 H           1 HUP       0.0514
     28 H10         0.4430   63.3607   73.1292 H           1 HUP       0.0514
     29 H11         2.7415   62.8924   71.6123 H           1 HUP       0.1006
     30 H12         5.3486   60.5984   71.7726 H           1 HUP       0.1917
     31 H13         4.6089   62.0304   72.1719 H           1 HUP       0.1917
     32 H14         4.2375   61.2804   70.7283 H           1 HUP       0.1917
     33 H15         4.2725   61.0224   74.2714 H           1 HUP       0.0233
     34 H16         4.6062   59.3440   73.8746 H           1 HUP       0.0233
     35 H17         2.6263   59.8868   76.8745 H           1 HUP       0.0377
     36 H18         4.1452   59.1965   76.2963 H           1 HUP       0.0377
     37 H19         2.6733   58.2229   76.2505 H           1 HUP       0.0377
@<TRIPOS>BOND
     1     4     1   1
     2     1     3  am
     3     1     2   2
     4     3     7   1
     5     7     8   1
     6     7     6   2
     7     6    14   1
     8     6     5   1
     9     5     4   2
    10    14    16   1
    11    14    15   1
    12    14    13   1
    13    13    12   2
    14    13     9   1
    15     9    10   1
    16     9     8   1
    17    10    17   2
    18    17    18   1
    19    16    17   1
    20    12    11   1
    21     3    19   1
    22     4    20   1
    23     5    21   1
    24     8    22   1
    25     8    23   1
    26     9    24   1
    27    10    25   1
    28    11    26   1
    29    11    27   1
    30    11    28   1
    31    12    29   1
    32    15    30   1
    33    15    31   1
    34    15    32   1
    35    16    33   1
    36    16    34   1
    37    18    35   1
    38    18    36   1
    39    18    37   1
@<TRIPOS>SUBSTRUCTURE
     1  HUP      1

