@<TRIPOS>MOLECULE
1gpk_ligand_045
    37    39
SMALL
GAST_HUCK
****
This file was generated by PARSER (from files_GN.cpp)

@<TRIPOS>ATOM
      1 C1          3.7382   58.5532   70.5238 C.2         1 HUP       0.2329
      2 O1          4.3375   57.8003   69.7709 O.2         1 HUP      -0.3876
      3 N1          2.6581   58.1105   71.1632 N.am        1 HUP      -0.1804
      4 C2          4.1558   59.8350   70.7216 C.2         1 HUP       0.0044
      5 C3          3.4534   60.6331   71.5516 C.2         1 HUP      -0.0667
      6 C4          2.3011   60.1968   72.1941 C.2         1 HUP      -0.0119
      7 C5          1.9563   58.8871   72.0173 C.2         1 HUP       0.1279
      8 C6          0.8235   58.2759   72.7094 C.3         1 HUP       0.0575
      9 C7          0.2373   59.1459   73.8652 C.3         1 HUP       0.0028
     10 C8          1.0725   59.0456   75.0684 C.2         1 HUP      -0.0963
     11 C9         -2.3198   60.6736   73.3088 C.3         1 HUP      -0.0165
     12 C10        -0.9811   61.2016   73.1322 C.2         1 HUP      -0.0578
     13 C11         0.1737   60.5354   73.3700 C.2         1 HUP      -0.0700
     14 C12         1.5380   61.0823   73.1284 C.3         1 HUP      -0.0531
     15 N2          1.5157   62.4707   72.6034 N.4         1 HUP       0.0987
     16 C13         2.2571   61.1161   74.5281 C.3         1 HUP      -0.0479
     17 C14         2.0437   59.9328   75.3760 C.2         1 HUP      -0.0960
     18 C15         2.8309   59.7506   76.5889 C.3         1 HUP      -0.0414
     19 H1          2.3750   57.1932   71.0219 H           1 HUP       0.2789
     20 H2          4.9771   60.1753   70.2747 H           1 HUP       0.0519
     21 H3          3.7954   61.5527   71.7066 H           1 HUP       0.0683
     22 H4          1.1198   57.2987   73.1036 H           1 HUP       0.0669
     23 H5          0.0389   58.1022   71.9698 H           1 HUP       0.0669
     24 H6         -0.7446   58.7427   74.1258 H           1 HUP       0.0532
     25 H7          0.9449   58.2475   75.6493 H           1 HUP       0.0261
     26 H8         -2.4580   59.7859   72.6890 H           1 HUP       0.0514
     27 H9         -3.0680   61.4122   73.0121 H           1 HUP       0.0514
     28 H10        -2.4908   60.4195   74.3564 H           1 HUP       0.0514
     29 H11        -0.9323   62.1310   72.7876 H           1 HUP       0.1006
     30 H12         2.4657   62.8452   72.5585 H           1 HUP       0.1917
     31 H13         0.9595   63.0639   73.2225 H           1 HUP       0.1917
     32 H14         1.1030   62.4787   71.6672 H           1 HUP       0.1917
     33 H15         1.9009   61.9813   75.0957 H           1 HUP       0.0233
     34 H16         3.3306   61.2549   74.3713 H           1 HUP       0.0233
     35 H17         2.1744   59.7208   77.4608 H           1 HUP       0.0377
     36 H18         3.5492   60.5592   76.7378 H           1 HUP       0.0377
     37 H19         3.3868   58.8128   76.5321 H           1 HUP       0.0377
@<TRIPOS>BOND
     1     4     1   1
     2     1     3  am
     3     1     2   2
     4     3     7   1
     5     7     8   1
     6     7     6   2
     7     6    14   1
     8     6     5   1
     9     5     4   2
    10    14    16   1
    11    14    15   1
    12    14    13   1
    13    13    12   2
    14    13     9   1
    15     9    10   1
    16     9     8   1
    17    10    17   2
    18    17    18   1
    19    16    17   1
    20    12    11   1
    21     3    19   1
    22     4    20   1
    23     5    21   1
    24     8    22   1
    25     8    23   1
    26     9    24   1
    27    10    25   1
    28    11    26   1
    29    11    27   1
    30    11    28   1
    31    12    29   1
    32    15    30   1
    33    15    31   1
    34    15    32   1
    35    16    33   1
    36    16    34   1
    37    18    35   1
    38    18    36   1
    39    18    37   1
@<TRIPOS>SUBSTRUCTURE
     1  HUP      1

