@<TRIPOS>MOLECULE
1gpk_ligand_063
    37    39
SMALL
GAST_HUCK
****
This file was generated by PARSER (from files_GN.cpp)

@<TRIPOS>ATOM
      1 C1          5.8684   60.5551   72.5106 C.2         1 HUP       0.2329
      2 O1          6.8708   60.3463   73.1685 O.2         1 HUP      -0.3876
      3 N1          4.7931   61.0639   73.1034 N.am        1 HUP      -0.1804
      4 C2          5.8296   60.3037   71.1739 C.2         1 HUP       0.0044
      5 C3          4.6867   60.5206   70.4948 C.2         1 HUP      -0.0667
      6 C4          3.5370   60.9951   71.1234 C.2         1 HUP      -0.0119
      7 C5          3.6504   61.3245   72.4433 C.2         1 HUP       0.1279
      8 C6          2.5498   61.9190   73.2026 C.3         1 HUP       0.0575
      9 C7          1.3741   62.4298   72.3131 C.3         1 HUP       0.0028
     10 C8          1.7069   63.7073   71.6728 C.2         1 HUP      -0.0963
     11 C9         -1.1572   60.7709   72.1548 C.3         1 HUP      -0.0165
     12 C10        -0.0201   60.6497   71.2619 C.2         1 HUP      -0.0578
     13 C11         1.1155   61.3854   71.3070 C.2         1 HUP      -0.0700
     14 C12         2.2721   61.2427   70.3744 C.3         1 HUP      -0.0531
     15 N2          2.0733   60.1700   69.3674 N.4         1 HUP       0.0987
     16 C13         2.3709   62.6038   69.5950 C.3         1 HUP      -0.0479
     17 C14         2.2066   63.8089   70.4207 C.2         1 HUP      -0.0960
     18 C15         2.4983   65.1223   69.8597 C.3         1 HUP      -0.0414
     19 H1          4.8265   61.2444   74.0566 H           1 HUP       0.2789
     20 H2          6.6487   59.9905   70.6952 H           1 HUP       0.0519
     21 H3          4.6894   60.3600   69.5156 H           1 HUP       0.0683
     22 H4          2.9240   62.7422   73.8152 H           1 HUP       0.0669
     23 H5          2.1713   61.1571   73.8901 H           1 HUP       0.0669
     24 H6          0.5172   62.6143   72.9671 H           1 HUP       0.0532
     25 H7          1.5859   64.5320   72.2135 H           1 HUP       0.0261
     26 H8         -0.8496   60.5733   73.1829 H           1 HUP       0.0514
     27 H9         -1.9353   60.0491   71.8927 H           1 HUP       0.0514
     28 H10        -1.5885   61.7704   72.0862 H           1 HUP       0.0514
     29 H11        -0.0973   59.9522   70.5701 H           1 HUP       0.1006
     30 H12         2.8456   60.1710   68.6973 H           1 HUP       0.1917
     31 H13         1.2081   60.3412   68.8634 H           1 HUP       0.1917
     32 H14         2.0315   59.2628   69.8368 H           1 HUP       0.1917
     33 H15         1.5902   62.6372   68.8287 H           1 HUP       0.0233
     34 H16         3.3322   62.6516   69.0737 H           1 HUP       0.0233
     35 H17         1.6027   65.7478   69.8825 H           1 HUP       0.0377
     36 H18         2.8357   65.0563   68.8233 H           1 HUP       0.0377
     37 H19         3.2844   65.6078   70.4406 H           1 HUP       0.0377
@<TRIPOS>BOND
     1     4     1   1
     2     1     3  am
     3     1     2   2
     4     3     7   1
     5     7     8   1
     6     7     6   2
     7     6    14   1
     8     6     5   1
     9     5     4   2
    10    14    16   1
    11    14    15   1
    12    14    13   1
    13    13    12   2
    14    13     9   1
    15     9    10   1
    16     9     8   1
    17    10    17   2
    18    17    18   1
    19    16    17   1
    20    12    11   1
    21     3    19   1
    22     4    20   1
    23     5    21   1
    24     8    22   1
    25     8    23   1
    26     9    24   1
    27    10    25   1
    28    11    26   1
    29    11    27   1
    30    11    28   1
    31    12    29   1
    32    15    30   1
    33    15    31   1
    34    15    32   1
    35    16    33   1
    36    16    34   1
    37    18    35   1
    38    18    36   1
    39    18    37   1
@<TRIPOS>SUBSTRUCTURE
     1  HUP      1

