@<TRIPOS>MOLECULE
1gpk_ligand_000
    37    39
SMALL
GAST_HUCK
****
This file was generated by PARSER (from files_GN.cpp)

@<TRIPOS>ATOM
      1 C1          5.7353   70.1353   64.5305 C.2         1 HUP       0.2329
      2 O1          6.2742   70.9928   65.2152 O.2         1 HUP      -0.3876
      3 N1          4.7758   69.3840   65.0638 N.am        1 HUP      -0.1804
      4 C2          6.0860   69.9421   63.2280 C.2         1 HUP       0.0044
      5 C3          5.4872   68.9604   62.5218 C.2         1 HUP      -0.0667
      6 C4          4.5266   68.1300   63.0834 C.2         1 HUP      -0.0119
      7 C5          4.1443   68.4151   64.3640 C.2         1 HUP       0.1279
      8 C6          3.0725   67.6913   65.0436 C.3         1 HUP       0.0575
      9 C7          2.2175   66.7953   64.0938 C.3         1 HUP       0.0028
     10 C8          1.2588   67.6067   63.3323 C.2         1 HUP      -0.0963
     11 C9          2.6971   63.8036   64.0909 C.3         1 HUP      -0.0165
     12 C10         3.3558   64.7558   63.2143 C.2         1 HUP      -0.0578
     13 C11         3.1561   66.0947   63.1955 C.2         1 HUP      -0.0700
     14 C12         3.8523   67.0534   62.2901 C.3         1 HUP      -0.0531
     15 N2          4.8257   66.3912   61.3834 N.4         1 HUP       0.0987
     16 C13         2.7322   67.6847   61.3814 C.3         1 HUP      -0.0479
     17 C14         1.4910   68.0532   62.0782 C.2         1 HUP      -0.0960
     18 C15         0.4737   68.8363   61.3893 C.3         1 HUP      -0.0414
     19 H1          4.5092   69.5493   65.9829 H           1 HUP       0.2789
     20 H2          6.7516   70.5385   62.7933 H           1 HUP       0.0519
     21 H3          5.7400   68.8571   61.5664 H           1 HUP       0.0683
     22 H4          2.4176   68.4045   65.5555 H           1 HUP       0.0669
     23 H5          3.5292   67.0613   65.8135 H           1 HUP       0.0669
     24 H6          1.6336   66.1125   64.7153 H           1 HUP       0.0532
     25 H7          0.4198   67.8779   63.7960 H           1 HUP       0.0261
     26 H8          2.9271   64.0269   65.1345 H           1 HUP       0.0514
     27 H9          3.0357   62.7864   63.8784 H           1 HUP       0.0514
     28 H10         1.6152   63.8350   63.9456 H           1 HUP       0.0514
     29 H11         4.0029   64.3656   62.5725 H           1 HUP       0.1006
     30 H12         5.2081   67.0668   60.7128 H           1 HUP       0.1917
     31 H13         4.3457   65.6529   60.8623 H           1 HUP       0.1917
     32 H14         5.5899   65.9813   61.9267 H           1 HUP       0.1917
     33 H15         2.4542   66.9679   60.6027 H           1 HUP       0.0233
     34 H16         3.1335   68.5665   60.8720 H           1 HUP       0.0233
     35 H17        -0.4645   68.2783   61.3450 H           1 HUP       0.0377
     36 H18         0.7675   69.0763   60.3656 H           1 HUP       0.0377
     37 H19         0.3047   69.7743   61.9234 H           1 HUP       0.0377
@<TRIPOS>BOND
     1     4     1   1
     2     1     3  am
     3     1     2   2
     4     3     7   1
     5     7     8   1
     6     7     6   2
     7     6    14   1
     8     6     5   1
     9     5     4   2
    10    14    16   1
    11    14    15   1
    12    14    13   1
    13    13    12   2
    14    13     9   1
    15     9    10   1
    16     9     8   1
    17    10    17   2
    18    17    18   1
    19    16    17   1
    20    12    11   1
    21     3    19   1
    22     4    20   1
    23     5    21   1
    24     8    22   1
    25     8    23   1
    26     9    24   1
    27    10    25   1
    28    11    26   1
    29    11    27   1
    30    11    28   1
    31    12    29   1
    32    15    30   1
    33    15    31   1
    34    15    32   1
    35    16    33   1
    36    16    34   1
    37    18    35   1
    38    18    36   1
    39    18    37   1
@<TRIPOS>SUBSTRUCTURE
     1  HUP      1

