@<TRIPOS>MOLECULE
1gpk_ligand_038
    37    39
SMALL
GAST_HUCK
****
This file was generated by PARSER (from files_GN.cpp)

@<TRIPOS>ATOM
      1 C1         -0.6362   65.4426   73.8491 C.2         1 HUP       0.2329
      2 O1         -1.1940   66.2057   74.6226 O.2         1 HUP      -0.3876
      3 N1          0.3500   64.6670   74.2997 N.am        1 HUP      -0.1804
      4 C2         -1.0031   65.3642   72.5395 C.2         1 HUP       0.0044
      5 C3         -0.3592   64.4990   71.7289 C.2         1 HUP      -0.0667
      6 C4          0.6868   63.7029   72.1771 C.2         1 HUP      -0.0119
      7 C5          0.9942   63.7823   73.5052 C.2         1 HUP       0.1279
      8 C6          2.0296   62.9598   74.1203 C.3         1 HUP       0.0575
      9 C7          2.5130   61.7681   73.2328 C.3         1 HUP       0.0028
     10 C8          1.5429   60.6651   73.2814 C.2         1 HUP      -0.0963
     11 C9          5.1112   61.7631   71.6480 C.3         1 HUP      -0.0165
     12 C10         3.8435   62.3003   71.1849 C.2         1 HUP      -0.0578
     13 C11         2.6663   62.2707   71.8545 C.2         1 HUP      -0.0700
     14 C12         1.3540   62.7025   71.2898 C.3         1 HUP      -0.0531
     15 N2          1.4740   63.2408   69.9138 N.4         1 HUP       0.0987
     16 C13         0.4617   61.4064   71.2136 C.3         1 HUP      -0.0479
     17 C14         0.5406   60.5183   72.3875 C.2         1 HUP      -0.0960
     18 C15        -0.4135   59.4285   72.5485 C.3         1 HUP      -0.0414
     19 H1          0.6044   64.7295   75.2353 H           1 HUP       0.2789
     20 H2         -1.7421   65.9297   72.1879 H           1 HUP       0.0519
     21 H3         -0.6614   64.4441   70.7850 H           1 HUP       0.0683
     22 H4          1.6688   62.5759   75.0786 H           1 HUP       0.0669
     23 H5          2.8781   63.6126   74.3332 H           1 HUP       0.0669
     24 H6          3.4485   61.3966   73.6571 H           1 HUP       0.0532
     25 H7          1.5908   60.0486   74.0626 H           1 HUP       0.0261
     26 H8          5.4374   62.2652   72.5602 H           1 HUP       0.0514
     27 H9          5.8891   61.9002   70.8913 H           1 HUP       0.0514
     28 H10         5.0105   60.6931   71.8398 H           1 HUP       0.0514
     29 H11         3.8606   62.6887   70.2723 H           1 HUP       0.1006
     30 H12         0.5458   63.4145   69.5245 H           1 HUP       0.1917
     31 H13         1.9563   62.5632   69.3197 H           1 HUP       0.1917
     32 H14         2.0049   64.1147   69.9298 H           1 HUP       0.1917
     33 H15         0.7652   60.8090   70.3486 H           1 HUP       0.0233
     34 H16        -0.5811   61.6950   71.0489 H           1 HUP       0.0233
     35 H17         0.1034   58.4657   72.5099 H           1 HUP       0.0377
     36 H18        -1.1767   59.4347   71.7690 H           1 HUP       0.0377
     37 H19        -0.9215   59.5164   73.5132 H           1 HUP       0.0377
@<TRIPOS>BOND
     1     4     1   1
     2     1     3  am
     3     1     2   2
     4     3     7   1
     5     7     8   1
     6     7     6   2
     7     6    14   1
     8     6     5   1
     9     5     4   2
    10    14    16   1
    11    14    15   1
    12    14    13   1
    13    13    12   2
    14    13     9   1
    15     9    10   1
    16     9     8   1
    17    10    17   2
    18    17    18   1
    19    16    17   1
    20    12    11   1
    21     3    19   1
    22     4    20   1
    23     5    21   1
    24     8    22   1
    25     8    23   1
    26     9    24   1
    27    10    25   1
    28    11    26   1
    29    11    27   1
    30    11    28   1
    31    12    29   1
    32    15    30   1
    33    15    31   1
    34    15    32   1
    35    16    33   1
    36    16    34   1
    37    18    35   1
    38    18    36   1
    39    18    37   1
@<TRIPOS>SUBSTRUCTURE
     1  HUP      1

