@<TRIPOS>MOLECULE
1h23_ligand_071
    84    87
SMALL
GAST_HUCK
****
This file was generated by PARSER (from files_GN.cpp)

@<TRIPOS>ATOM
      1 C1         -1.1090   65.1862   75.5601 C.2         1 E12       0.1811
      2 N2         -1.5639   63.9374   75.5534 N.am        1 E12      -0.2230
      3 O7         -1.4617   65.9508   76.4483 O.2         1 E12      -0.4310
      4 C4         -0.3736   63.4224   73.6038 C.2         1 E12       0.0225
      5 C5          0.0734   64.7294   73.5962 C.2         1 E12      -0.0779
      6 C14        -1.9196   61.0249   73.2269 C.3         1 E12      -0.0310
      7 N17         1.5694   62.4154   72.4457 N.4         1 E12       0.2346
      8 C24         2.3754   62.0884   73.6545 C.3         1 E12      -0.0329
      9 C6         -0.2842   65.6072   74.5606 C.2         1 E12      -0.0278
     10 C9         -1.9178   61.7552   74.5956 C.3         1 E12       0.0189
     11 C10         0.0835   62.4789   72.5630 C.3         1 E12      -0.0032
     12 C13        -0.4953   61.0250   72.6347 C.3         1 E12      -0.0041
     13 C63         3.5671   61.1647   73.3010 C.3         1 E12      -0.0126
     14 C29         2.5518   68.4183   60.7584 C.2         1 E12       0.1811
     15 C3         -1.2500   63.0508   74.5770 C.2         1 E12       0.0883
     16 N30         3.8516   68.2169   60.9571 N.am        1 E12      -0.2230
     17 C31         4.4385   68.3808   62.1630 C.2         1 E12       0.0883
     18 C32         3.6920   68.8100   63.2191 C.2         1 E12       0.0225
     19 C33         2.3436   69.0474   63.0000 C.2         1 E12      -0.0779
     20 C34         1.7720   68.8404   61.7979 C.2         1 E12      -0.0278
     21 O35         2.0791   68.2416   59.6506 O.2         1 E12      -0.4310
     22 C36         5.8700   68.1267   62.2300 C.3         1 E12       0.0189
     23 C37         4.2588   69.0235   64.5608 C.3         1 E12      -0.0032
     24 C38         5.8169   68.9626   64.6335 C.3         1 E12      -0.0041
     25 C39         6.4174   67.9262   63.6615 C.3         1 E12      -0.0310
     26 N40         3.5788   68.2257   65.6250 N.4         1 E12       0.2346
     27 C41         3.6991   66.7534   65.7386 C.3         1 E12      -0.0329
     28 C64         4.6642   61.8361   72.4236 C.3         1 E12      -0.0483
     29 C65         5.1399   60.9691   71.2264 C.3         1 E12      -0.0529
     30 C66         4.1848   60.9257   69.9975 C.3         1 E12      -0.0531
     31 C67         3.9393   62.3111   69.3303 C.3         1 E12      -0.0531
     32 C68         3.6143   62.2537   67.8122 C.3         1 E12      -0.0531
     33 C69         3.7001   63.6462   67.1264 C.3         1 E12      -0.0531
     34 C70         3.8007   63.5572   65.5681 C.3         1 E12      -0.0529
     35 C71         2.7923   64.4444   64.7910 C.3         1 E12      -0.0483
     36 C72         3.1865   65.9237   64.5289 C.3         1 E12      -0.0126
     37 H1         -2.1589   63.6533   76.2681 H           1 E12       0.2526
     38 H2          0.6495   65.0558   72.8579 H           1 E12       0.0600
     39 H3         -2.2719   59.9977   73.3492 H           1 E12       0.0298
     40 H4         -2.5993   61.5326   72.5359 H           1 E12       0.0298
     41 H5          1.8902   63.3241   72.1094 H           1 E12       0.2022
     42 H6          1.7843   61.7269   71.7218 H           1 E12       0.2022
     43 H7          1.7716   61.5917   74.4167 H           1 E12       0.0814
     44 H8          2.7513   63.0147   74.0924 H           1 E12       0.0814
     45 H9          0.0478   66.5427   74.5356 H           1 E12       0.0298
     46 H10        -2.9569   61.8763   74.9063 H           1 E12       0.0511
     47 H11        -1.4149   61.1324   75.3388 H           1 E12       0.0511
     48 H12        -0.2726   62.8915   71.6151 H           1 E12       0.0913
     49 H13         0.1322   60.3834   73.2516 H           1 E12       0.0333
     50 H14        -0.5196   60.5851   71.6346 H           1 E12       0.0333
     51 H15         3.1641   60.2794   72.8092 H           1 E12       0.0317
     52 H16         4.0264   60.8214   74.2339 H           1 E12       0.0317
     53 H17         4.4068   67.9429   60.2069 H           1 E12       0.2526
     54 H18         1.7685   69.3764   63.7444 H           1 E12       0.0600
     55 H19         0.8016   69.0072   61.6678 H           1 E12       0.0298
     56 H20         6.3837   68.9702   61.7613 H           1 E12       0.0511
     57 H21         6.1134   67.2269   61.6554 H           1 E12       0.0511
     58 H22         4.0157   70.0607   64.8252 H           1 E12       0.0913
     59 H23         6.1410   68.7298   65.6482 H           1 E12       0.0333
     60 H24         6.2319   69.9451   64.3754 H           1 E12       0.0333
     61 H25         7.5050   68.0223   63.6507 H           1 E12       0.0298
     62 H26         6.1764   66.9193   64.0084 H           1 E12       0.0298
     63 H27         3.9147   68.6068   66.5163 H           1 E12       0.2022
     64 H28         2.5811   68.4442   65.5740 H           1 E12       0.2022
     65 H29         4.7297   66.4871   65.9601 H           1 E12       0.0814
     66 H30         3.1004   66.4841   66.6155 H           1 E12       0.0814
     67 H31         5.5322   62.0378   73.0603 H           1 E12       0.0267
     68 H32         4.3338   62.8058   72.0518 H           1 E12       0.0267
     69 H33         5.3029   59.9473   71.5815 H           1 E12       0.0265
     70 H34         6.1105   61.3430   70.8916 H           1 E12       0.0265
     71 H35         3.2259   60.4838   70.2838 H           1 E12       0.0265
     72 H36         4.6401   60.2501   69.2693 H           1 E12       0.0265
     73 H37         4.8348   62.9226   69.4585 H           1 E12       0.0265
     74 H38         3.1147   62.8153   69.8412 H           1 E12       0.0265
     75 H39         2.6082   61.8495   67.6656 H           1 E12       0.0265
     76 H40         4.3219   61.5736   67.3307 H           1 E12       0.0265
     77 H41         4.5738   64.1882   67.4960 H           1 E12       0.0265
     78 H42         2.8224   64.2210   67.4305 H           1 E12       0.0265
     79 H43         3.6245   62.5232   65.2548 H           1 E12       0.0265
     80 H44         4.8204   63.8045   65.2548 H           1 E12       0.0265
     81 H45         1.8234   64.4051   65.2913 H           1 E12       0.0267
     82 H46         2.6535   63.9853   63.8093 H           1 E12       0.0267
     83 H47         2.2974   66.4178   64.1201 H           1 E12       0.0317
     84 H48         3.9495   65.9353   63.7530 H           1 E12       0.0317
@<TRIPOS>BOND
     1     1     9   1
     2     1     3   2
     3     1     2  am
     4     2    15   1
     5    15    10   1
     6    15     4   2
     7     4    11   1
     8     4     5   1
     9     5     9   2
    10    11     7   1
    11    11    12   1
    12    12     6   1
    13     6    10   1
    14     7     8   1
    15     8    13   1
    16    13    28   1
    17    28    29   1
    18    29    30   1
    19    30    31   1
    20    31    32   1
    21    32    33   1
    22    33    34   1
    23    34    35   1
    24    35    36   1
    25    36    27   1
    26    27    26   1
    27    26    23   1
    28    23    24   1
    29    23    18   1
    30    18    19   1
    31    18    17   2
    32    17    22   1
    33    17    16   1
    34    16    14  am
    35    14    20   1
    36    14    21   2
    37    20    19   2
    38    22    25   1
    39    25    24   1
    40     2    37   1
    41     5    38   1
    42     6    39   1
    43     6    40   1
    44     7    41   1
    45     7    42   1
    46     8    43   1
    47     8    44   1
    48     9    45   1
    49    10    46   1
    50    10    47   1
    51    11    48   1
    52    12    49   1
    53    12    50   1
    54    13    51   1
    55    13    52   1
    56    16    53   1
    57    19    54   1
    58    20    55   1
    59    22    56   1
    60    22    57   1
    61    23    58   1
    62    24    59   1
    63    24    60   1
    64    25    61   1
    65    25    62   1
    66    26    63   1
    67    26    64   1
    68    27    65   1
    69    27    66   1
    70    28    67   1
    71    28    68   1
    72    29    69   1
    73    29    70   1
    74    30    71   1
    75    30    72   1
    76    31    73   1
    77    31    74   1
    78    32    75   1
    79    32    76   1
    80    33    77   1
    81    33    78   1
    82    34    79   1
    83    34    80   1
    84    35    81   1
    85    35    82   1
    86    36    83   1
    87    36    84   1
@<TRIPOS>SUBSTRUCTURE
     1  E12      1

