@<TRIPOS>MOLECULE
1h23_ligand_043
    84    87
SMALL
GAST_HUCK
****
This file was generated by PARSER (from files_GN.cpp)

@<TRIPOS>ATOM
      1 C1          2.5293   68.4363   60.7934 C.2         1 E12       0.1811
      2 N2          3.8287   68.2307   61.0013 N.am        1 E12      -0.2230
      3 O7          2.0776   68.2887   59.6707 O.2         1 E12      -0.4310
      4 C4          3.6154   68.6278   63.3095 C.2         1 E12       0.0225
      5 C5          2.2833   68.9224   63.0699 C.2         1 E12      -0.0779
      6 C14         6.4912   68.5762   63.5970 C.3         1 E12      -0.0310
      7 N17         3.2945   68.0189   65.6840 N.4         1 E12       0.2346
      8 C24         3.6228   68.1847   67.1267 C.3         1 E12      -0.0329
      9 C6          1.7361   68.8038   61.8375 C.2         1 E12      -0.0278
     10 C9          5.8349   68.1514   62.2646 C.3         1 E12       0.0189
     11 C10         4.1677   68.7109   64.6832 C.3         1 E12      -0.0032
     12 C13         5.6171   68.1299   64.7864 C.3         1 E12      -0.0041
     13 C63         2.6589   67.3629   68.0334 C.3         1 E12      -0.0126
     14 C29        -1.1079   65.2828   75.6377 C.2         1 E12       0.1811
     15 C3          4.3941   68.3524   62.2203 C.2         1 E12       0.0883
     16 N30        -1.7057   64.1309   75.9413 N.am        1 E12      -0.2230
     17 C31        -1.6309   63.0421   75.1419 C.2         1 E12       0.0883
     18 C32        -0.8531   63.0718   74.0180 C.2         1 E12       0.0225
     19 C33        -0.2524   64.2848   73.7055 C.2         1 E12      -0.0779
     20 C34        -0.3681   65.3686   74.4990 C.2         1 E12      -0.0278
     21 O35        -1.2577   66.2407   76.3797 O.2         1 E12      -0.4310
     22 C36        -2.4574   61.9018   75.5205 C.3         1 E12       0.0189
     23 C37        -0.7173   61.9172   73.0987 C.3         1 E12      -0.0032
     24 C38        -1.4537   60.6292   73.5964 C.3         1 E12      -0.0041
     25 C39        -2.7702   60.9657   74.3285 C.3         1 E12      -0.0310
     26 N40         0.7275   61.6513   72.8033 N.4         1 E12       0.2346
     27 C41         1.0819   60.3891   72.0997 C.3         1 E12      -0.0329
     28 C64         3.2776   66.9195   69.3914 C.3         1 E12      -0.0483
     29 C65         4.3724   65.8221   69.2272 C.3         1 E12      -0.0529
     30 C66         4.6914   65.0422   70.5307 C.3         1 E12      -0.0531
     31 C67         5.3295   63.6461   70.2573 C.3         1 E12      -0.0531
     32 C68         5.2867   62.7040   71.4924 C.3         1 E12      -0.0531
     33 C69         5.5361   61.2034   71.1579 C.3         1 E12      -0.0531
     34 C70         5.1046   60.2034   72.2693 C.3         1 E12      -0.0529
     35 C71         3.6179   60.2709   72.7416 C.3         1 E12      -0.0483
     36 C72         2.5520   60.3494   71.6080 C.3         1 E12      -0.0126
     37 H1          4.4017   68.0052   60.2481 H           1 E12       0.2526
     38 H2          1.7015   69.2459   63.8078 H           1 E12       0.0600
     39 H3          7.4864   68.1302   63.6765 H           1 E12       0.0298
     40 H4          6.6052   69.6647   63.6207 H           1 E12       0.0298
     41 H5          3.3048   67.0211   65.4680 H           1 E12       0.2022
     42 H6          2.3383   68.3505   65.5657 H           1 E12       0.2022
     43 H7          3.5362   69.2440   67.3929 H           1 E12       0.0814
     44 H8          4.6565   67.8744   67.3004 H           1 E12       0.0814
     45 H9          0.7767   69.0160   61.6948 H           1 E12       0.0298
     46 H10         6.3080   68.7311   61.4666 H           1 E12       0.0511
     47 H11         6.0397   67.0907   62.0870 H           1 E12       0.0511
     48 H12         4.2057   69.7774   64.9343 H           1 E12       0.0913
     49 H13         5.5767   67.0354   64.8009 H           1 E12       0.0333
     50 H14         6.1042   68.4737   65.6994 H           1 E12       0.0333
     51 H15         2.3208   66.4674   67.5041 H           1 E12       0.0317
     52 H16         1.7654   67.9646   68.2371 H           1 E12       0.0317
     53 H17        -2.2458   64.0812   76.7492 H           1 E12       0.2526
     54 H18         0.2689   64.3786   72.8647 H           1 E12       0.0600
     55 H19         0.0670   66.2274   74.2470 H           1 E12       0.0298
     56 H20        -3.4102   62.2486   75.9314 H           1 E12       0.0511
     57 H21        -1.9355   61.3443   76.3069 H           1 E12       0.0511
     58 H22        -1.1966   62.2166   72.1585 H           1 E12       0.0913
     59 H23        -0.8119   60.0747   74.2855 H           1 E12       0.0333
     60 H24        -1.6869   59.9828   72.7472 H           1 E12       0.0333
     61 H25        -3.4618   61.4625   73.6378 H           1 E12       0.0298
     62 H26        -3.2484   60.0510   74.6925 H           1 E12       0.0298
     63 H27         1.0666   62.4205   72.2224 H           1 E12       0.2022
     64 H28         1.2455   61.6733   73.6833 H           1 E12       0.2022
     65 H29         0.9259   59.5395   72.7691 H           1 E12       0.0814
     66 H30         0.4321   60.2634   71.2291 H           1 E12       0.0814
     67 H31         2.4666   66.5264   70.0134 H           1 E12       0.0267
     68 H32         3.6978   67.7846   69.9086 H           1 E12       0.0267
     69 H33         5.2971   66.2718   68.8567 H           1 E12       0.0265
     70 H34         4.0227   65.1092   68.4751 H           1 E12       0.0265
     71 H35         3.7571   64.9037   71.0804 H           1 E12       0.0265
     72 H36         5.3669   65.6345   71.1543 H           1 E12       0.0265
     73 H37         6.3638   63.7759   69.9297 H           1 E12       0.0265
     74 H38         4.7810   63.1656   69.4432 H           1 E12       0.0265
     75 H39         4.3010   62.7951   71.9445 H           1 E12       0.0265
     76 H40         6.0160   63.0379   72.2340 H           1 E12       0.0265
     77 H41         6.6014   61.0642   70.9617 H           1 E12       0.0265
     78 H42         5.0097   60.9283   70.2412 H           1 E12       0.0265
     79 H43         5.7492   60.3602   73.1392 H           1 E12       0.0265
     80 H44         5.3017   59.1897   71.9043 H           1 E12       0.0265
     81 H45         3.4998   61.1318   73.4008 H           1 E12       0.0267
     82 H46         3.4201   59.3876   73.3525 H           1 E12       0.0267
     83 H47         2.6768   59.4756   70.9590 H           1 E12       0.0317
     84 H48         2.7241   61.2433   71.0023 H           1 E12       0.0317
@<TRIPOS>BOND
     1     1     9   1
     2     1     3   2
     3     1     2  am
     4     2    15   1
     5    15    10   1
     6    15     4   2
     7     4    11   1
     8     4     5   1
     9     5     9   2
    10    11     7   1
    11    11    12   1
    12    12     6   1
    13     6    10   1
    14     7     8   1
    15     8    13   1
    16    13    28   1
    17    28    29   1
    18    29    30   1
    19    30    31   1
    20    31    32   1
    21    32    33   1
    22    33    34   1
    23    34    35   1
    24    35    36   1
    25    36    27   1
    26    27    26   1
    27    26    23   1
    28    23    24   1
    29    23    18   1
    30    18    19   1
    31    18    17   2
    32    17    22   1
    33    17    16   1
    34    16    14  am
    35    14    20   1
    36    14    21   2
    37    20    19   2
    38    22    25   1
    39    25    24   1
    40     2    37   1
    41     5    38   1
    42     6    39   1
    43     6    40   1
    44     7    41   1
    45     7    42   1
    46     8    43   1
    47     8    44   1
    48     9    45   1
    49    10    46   1
    50    10    47   1
    51    11    48   1
    52    12    49   1
    53    12    50   1
    54    13    51   1
    55    13    52   1
    56    16    53   1
    57    19    54   1
    58    20    55   1
    59    22    56   1
    60    22    57   1
    61    23    58   1
    62    24    59   1
    63    24    60   1
    64    25    61   1
    65    25    62   1
    66    26    63   1
    67    26    64   1
    68    27    65   1
    69    27    66   1
    70    28    67   1
    71    28    68   1
    72    29    69   1
    73    29    70   1
    74    30    71   1
    75    30    72   1
    76    31    73   1
    77    31    74   1
    78    32    75   1
    79    32    76   1
    80    33    77   1
    81    33    78   1
    82    34    79   1
    83    34    80   1
    84    35    81   1
    85    35    82   1
    86    36    83   1
    87    36    84   1
@<TRIPOS>SUBSTRUCTURE
     1  E12      1

