@<TRIPOS>MOLECULE
1h23_ligand_044
    84    87
SMALL
GAST_HUCK
****
This file was generated by PARSER (from files_GN.cpp)

@<TRIPOS>ATOM
      1 C1          2.4748   61.7069   69.6476 C.2         1 E12       0.1811
      2 N2          3.3236   62.5743   70.1999 N.am        1 E12      -0.2230
      3 O7          1.8561   60.9365   70.3660 O.2         1 E12      -0.4310
      4 C4          3.8055   63.5627   68.1326 C.2         1 E12       0.0225
      5 C5          3.0134   62.5863   67.5506 C.2         1 E12      -0.0779
      6 C14         5.9672   65.0539   69.2666 C.3         1 E12      -0.0310
      7 N17         3.1471   65.2806   66.5803 N.4         1 E12       0.2346
      8 C24         3.0600   66.7140   66.1990 C.3         1 E12      -0.0329
      9 C6          2.3304   61.6916   68.2953 C.2         1 E12      -0.0278
     10 C9          4.9729   64.3120   70.1945 C.3         1 E12       0.0189
     11 C10         4.3123   64.6892   67.3169 C.3         1 E12      -0.0032
     12 C13         5.1926   65.7149   68.1093 C.3         1 E12      -0.0041
     13 C63         2.6154   67.7345   67.2943 C.3         1 E12      -0.0126
     14 C29         4.7665   59.4013   72.4927 C.2         1 E12       0.1811
     15 C3          4.0304   63.4670   69.4744 C.2         1 E12       0.0883
     16 N30         4.2736   58.3950   73.2105 N.am        1 E12      -0.2230
     17 C31         3.4320   58.5922   74.2519 C.2         1 E12       0.0883
     18 C32         2.9914   59.8507   74.5213 C.2         1 E12       0.0225
     19 C33         3.5559   60.8988   73.8159 C.2         1 E12      -0.0779
     20 C34         4.4469   60.6829   72.8305 C.2         1 E12      -0.0278
     21 O35         5.4819   59.1585   71.5304 O.2         1 E12      -0.4310
     22 C36         3.0149   57.4259   75.0197 C.3         1 E12       0.0189
     23 C37         1.9571   60.1289   75.5360 C.3         1 E12      -0.0032
     24 C38         1.5290   58.9148   76.4330 C.3         1 E12      -0.0041
     25 C39         2.5911   57.7916   76.4640 C.3         1 E12      -0.0310
     26 N40         0.7536   60.7929   74.9496 N.4         1 E12       0.2346
     27 C41         0.1057   60.1713   73.7587 C.3         1 E12      -0.0329
     28 C64         1.5175   67.2647   68.3017 C.3         1 E12      -0.0483
     29 C65         2.0389   66.4145   69.5070 C.3         1 E12      -0.0529
     30 C66         1.0253   66.2617   70.6800 C.3         1 E12      -0.0531
     31 C67        -0.3460   65.6283   70.3106 C.3         1 E12      -0.0531
     32 C68        -0.4044   64.0674   70.3514 C.3         1 E12      -0.0531
     33 C69        -0.5480   63.4825   71.7909 C.3         1 E12      -0.0531
     34 C70        -1.4046   62.1784   71.8490 C.3         1 E12      -0.0529
     35 C71        -1.8646   61.8145   73.2961 C.3         1 E12      -0.0483
     36 C72        -1.4273   60.3986   73.7732 C.3         1 E12      -0.0126
     37 H1          3.4183   62.5829   71.1619 H           1 E12       0.2526
     38 H2          2.9209   62.5432   66.5625 H           1 E12       0.0600
     39 H3          6.4942   65.8173   69.8386 H           1 E12       0.0298
     40 H4          6.7086   64.3560   68.8633 H           1 E12       0.0298
     41 H5          2.2832   65.0242   67.0645 H           1 E12       0.2022
     42 H6          3.1154   64.7671   65.6965 H           1 E12       0.2022
     43 H7          2.3130   66.7562   65.4005 H           1 E12       0.0814
     44 H8          4.0082   67.0414   65.7611 H           1 E12       0.0814
     45 H9          1.7393   61.0240   67.8576 H           1 E12       0.0298
     46 H10         5.5593   63.7014   70.8904 H           1 E12       0.0511
     47 H11         4.4077   65.0411   70.7813 H           1 E12       0.0511
     48 H12         4.9666   64.2543   66.5539 H           1 E12       0.0913
     49 H13         4.5701   66.4863   68.5569 H           1 E12       0.0333
     50 H14         5.9059   66.1977   67.4345 H           1 E12       0.0333
     51 H15         2.2169   68.6074   66.7602 H           1 E12       0.0317
     52 H16         3.4816   68.1004   67.8506 H           1 E12       0.0317
     53 H17         4.5277   57.4847   72.9826 H           1 E12       0.2526
     54 H18         3.3306   61.8386   74.0556 H           1 E12       0.0600
     55 H19         4.8888   61.4487   72.3784 H           1 E12       0.0298
     56 H20         3.8377   56.7065   75.0841 H           1 E12       0.0511
     57 H21         2.1848   56.9415   74.4986 H           1 E12       0.0511
     58 H22         2.3923   60.8624   76.2227 H           1 E12       0.0913
     59 H23         0.5933   58.4795   76.0753 H           1 E12       0.0333
     60 H24         1.3470   59.2585   77.4562 H           1 E12       0.0333
     61 H25         3.4676   58.1294   77.0279 H           1 E12       0.0298
     62 H26         2.1847   56.9091   76.9654 H           1 E12       0.0298
     63 H27         0.0510   60.8663   75.6889 H           1 E12       0.2022
     64 H28         1.0185   61.7462   74.6836 H           1 E12       0.2022
     65 H29         0.5310   60.5990   72.8458 H           1 E12       0.0814
     66 H30         0.2820   59.0931   73.7355 H           1 E12       0.0814
     67 H31         0.7557   66.6989   67.7531 H           1 E12       0.0267
     68 H32         1.0397   68.1689   68.7012 H           1 E12       0.0267
     69 H33         2.9318   66.9007   69.9184 H           1 E12       0.0265
     70 H34         2.3212   65.4153   69.1694 H           1 E12       0.0265
     71 H35         0.8461   67.2586   71.0981 H           1 E12       0.0265
     72 H36         1.4948   65.6689   71.4712 H           1 E12       0.0265
     73 H37        -0.6462   65.9671   69.3148 H           1 E12       0.0265
     74 H38        -1.0933   66.0238   71.0092 H           1 E12       0.0265
     75 H39         0.4841   63.6420   69.8702 H           1 E12       0.0265
     76 H40        -1.2706   63.7723   69.7480 H           1 E12       0.0265
     77 H41        -1.0136   64.2251   72.4499 H           1 E12       0.0265
     78 H42         0.4519   63.2664   72.1920 H           1 E12       0.0265
     79 H43        -0.8167   61.3665   71.4045 H           1 E12       0.0265
     80 H44        -2.3025   62.3073   71.2298 H           1 E12       0.0265
     81 H45        -2.9613   61.8520   73.3244 H           1 E12       0.0267
     82 H46        -1.5070   62.5541   74.0203 H           1 E12       0.0267
     83 H47        -1.9089   59.6458   73.1449 H           1 E12       0.0317
     84 H48        -1.7882   60.2449   74.7978 H           1 E12       0.0317
@<TRIPOS>BOND
     1     1     9   1
     2     1     3   2
     3     1     2  am
     4     2    15   1
     5    15    10   1
     6    15     4   2
     7     4    11   1
     8     4     5   1
     9     5     9   2
    10    11     7   1
    11    11    12   1
    12    12     6   1
    13     6    10   1
    14     7     8   1
    15     8    13   1
    16    13    28   1
    17    28    29   1
    18    29    30   1
    19    30    31   1
    20    31    32   1
    21    32    33   1
    22    33    34   1
    23    34    35   1
    24    35    36   1
    25    36    27   1
    26    27    26   1
    27    26    23   1
    28    23    24   1
    29    23    18   1
    30    18    19   1
    31    18    17   2
    32    17    22   1
    33    17    16   1
    34    16    14  am
    35    14    20   1
    36    14    21   2
    37    20    19   2
    38    22    25   1
    39    25    24   1
    40     2    37   1
    41     5    38   1
    42     6    39   1
    43     6    40   1
    44     7    41   1
    45     7    42   1
    46     8    43   1
    47     8    44   1
    48     9    45   1
    49    10    46   1
    50    10    47   1
    51    11    48   1
    52    12    49   1
    53    12    50   1
    54    13    51   1
    55    13    52   1
    56    16    53   1
    57    19    54   1
    58    20    55   1
    59    22    56   1
    60    22    57   1
    61    23    58   1
    62    24    59   1
    63    24    60   1
    64    25    61   1
    65    25    62   1
    66    26    63   1
    67    26    64   1
    68    27    65   1
    69    27    66   1
    70    28    67   1
    71    28    68   1
    72    29    69   1
    73    29    70   1
    74    30    71   1
    75    30    72   1
    76    31    73   1
    77    31    74   1
    78    32    75   1
    79    32    76   1
    80    33    77   1
    81    33    78   1
    82    34    79   1
    83    34    80   1
    84    35    81   1
    85    35    82   1
    86    36    83   1
    87    36    84   1
@<TRIPOS>SUBSTRUCTURE
     1  E12      1

