@<TRIPOS>MOLECULE
1h23_ligand_032
    84    87
SMALL
GAST_HUCK
****
This file was generated by PARSER (from files_GN.cpp)

@<TRIPOS>ATOM
      1 C1          3.7361   57.2486   70.9366 C.2         1 E12       0.1811
      2 N2          3.4290   57.2032   72.2289 N.am        1 E12      -0.2230
      3 O7          4.3865   56.3350   70.4498 O.2         1 E12      -0.4310
      4 C4          2.2259   59.2091   72.1274 C.2         1 E12       0.0225
      5 C5          2.5512   59.2580   70.7800 C.2         1 E12      -0.0779
      6 C14         2.2385   59.3743   75.0141 C.3         1 E12      -0.0310
      7 N17         0.2851   60.7327   71.9795 N.4         1 E12       0.2346
      8 C24        -0.5039   61.9077   72.4697 C.3         1 E12      -0.0329
      9 C6          3.2942   58.2974   70.1873 C.2         1 E12      -0.0278
     10 C9          2.5977   58.0474   74.3012 C.3         1 E12       0.0189
     11 C10         1.5027   60.3341   72.7577 C.3         1 E12      -0.0032
     12 C13         1.1001   60.0811   74.2482 C.3         1 E12      -0.0041
     13 C63        -0.9717   62.8773   71.3490 C.3         1 E12      -0.0126
     14 C29         1.0008   69.2855   63.3883 C.2         1 E12       0.1811
     15 C3          2.7376   58.1747   72.8545 C.2         1 E12       0.0883
     16 N30        -0.0846   69.2340   64.1580 N.am        1 E12      -0.2230
     17 C31        -0.0767   68.6902   65.3947 C.2         1 E12       0.0883
     18 C32         1.1033   68.2699   65.9286 C.2         1 E12       0.0225
     19 C33         2.2075   68.2405   65.0915 C.2         1 E12      -0.0779
     20 C34         2.1661   68.7513   63.8453 C.2         1 E12      -0.0278
     21 O35         0.9417   69.8402   62.2995 O.2         1 E12      -0.4310
     22 C36        -1.3478   68.6394   66.1087 C.3         1 E12       0.0189
     23 C37         1.2395   67.8402   67.3362 C.3         1 E12      -0.0032
     24 C38        -0.0758   67.9403   68.1807 C.3         1 E12      -0.0041
     25 C39        -1.3363   67.6816   67.3275 C.3         1 E12      -0.0310
     26 N40         2.3108   68.6551   67.9910 N.4         1 E12       0.2346
     27 C41         2.7653   68.2856   69.3538 C.3         1 E12      -0.0329
     28 C64         0.0191   63.1277   70.1770 C.3         1 E12      -0.0483
     29 C65         1.4895   63.4394   70.6115 C.3         1 E12      -0.0529
     30 C66         2.5325   63.2656   69.4544 C.3         1 E12      -0.0531
     31 C67         3.9679   62.8871   69.9514 C.3         1 E12      -0.0531
     32 C68         4.7985   64.0335   70.6132 C.3         1 E12      -0.0531
     33 C69         5.7551   64.8282   69.6694 C.3         1 E12      -0.0531
     34 C70         5.1964   65.2572   68.2791 C.3         1 E12      -0.0529
     35 C71         4.3744   66.5751   68.2104 C.3         1 E12      -0.0483
     36 C72         3.5415   66.9465   69.4727 C.3         1 E12      -0.0126
     37 H1          3.7643   56.4644   72.7597 H           1 E12       0.2526
     38 H2          2.2435   60.0144   70.2109 H           1 E12       0.0600
     39 H3          1.9212   59.1720   76.0439 H           1 E12       0.0298
     40 H4          3.1206   60.0272   75.0480 H           1 E12       0.0298
     41 H5         -0.3464   59.9259   71.9232 H           1 E12       0.2022
     42 H6          0.5790   60.9447   71.0269 H           1 E12       0.2022
     43 H7          0.0650   62.4966   73.1954 H           1 E12       0.0814
     44 H8         -1.3855   61.5303   72.9986 H           1 E12       0.0814
     45 H9          3.5124   58.3543   69.2180 H           1 E12       0.0298
     46 H10         3.5355   57.6802   74.7357 H           1 E12       0.0511
     47 H11         1.8216   57.3015   74.5066 H           1 E12       0.0511
     48 H12         2.2051   61.1758   72.7525 H           1 E12       0.0913
     49 H13         0.2049   59.4523   74.2828 H           1 E12       0.0333
     50 H14         0.8746   61.0315   74.7412 H           1 E12       0.0333
     51 H15        -1.2040   63.8400   71.8149 H           1 E12       0.0317
     52 H16        -1.9034   62.4921   70.9223 H           1 E12       0.0317
     53 H17        -0.8983   69.6526   63.8471 H           1 E12       0.2526
     54 H18         3.0599   67.8285   65.4002 H           1 E12       0.0600
     55 H19         2.9736   68.7218   63.2648 H           1 E12       0.0298
     56 H20        -2.1332   68.2969   65.4293 H           1 E12       0.0511
     57 H21        -1.6092   69.6478   66.4399 H           1 E12       0.0511
     58 H22         1.5401   66.7870   67.3123 H           1 E12       0.0913
     59 H23        -0.1658   68.9411   68.6159 H           1 E12       0.0333
     60 H24        -0.0452   67.2207   69.0032 H           1 E12       0.0333
     61 H25        -1.3321   66.6403   66.9868 H           1 E12       0.0298
     62 H26        -2.2333   67.8387   67.9362 H           1 E12       0.0298
     63 H27         3.1389   68.6495   67.3942 H           1 E12       0.2022
     64 H28         1.9762   69.6223   68.0370 H           1 E12       0.2022
     65 H29         3.4097   69.0937   69.7001 H           1 E12       0.0814
     66 H30         1.9103   68.2529   70.0329 H           1 E12       0.0814
     67 H31        -0.3617   63.9721   69.5903 H           1 E12       0.0267
     68 H32         0.0025   62.2419   69.5286 H           1 E12       0.0267
     69 H33         1.7831   62.7730   71.4307 H           1 E12       0.0265
     70 H34         1.5304   64.4785   70.9851 H           1 E12       0.0265
     71 H35         2.5651   64.1880   68.8572 H           1 E12       0.0265
     72 H36         2.2169   62.4495   68.7851 H           1 E12       0.0265
     73 H37         4.5274   62.4720   69.1077 H           1 E12       0.0265
     74 H38         3.8621   62.0744   70.6797 H           1 E12       0.0265
     75 H39         5.4370   63.5747   71.3762 H           1 E12       0.0265
     76 H40         4.1372   64.7163   71.1494 H           1 E12       0.0265
     77 H41         6.6342   64.1975   69.4977 H           1 E12       0.0265
     78 H42         6.1040   65.7220   70.1996 H           1 E12       0.0265
     79 H43         4.6088   64.4449   67.8518 H           1 E12       0.0265
     80 H44         6.0606   65.3928   67.6136 H           1 E12       0.0265
     81 H45         3.6959   66.4708   67.3578 H           1 E12       0.0267
     82 H46         5.0600   67.3987   67.9893 H           1 E12       0.0267
     83 H47         4.2188   67.0435   70.3300 H           1 E12       0.0317
     84 H48         2.8309   66.1387   69.6876 H           1 E12       0.0317
@<TRIPOS>BOND
     1     1     9   1
     2     1     3   2
     3     1     2  am
     4     2    15   1
     5    15    10   1
     6    15     4   2
     7     4    11   1
     8     4     5   1
     9     5     9   2
    10    11     7   1
    11    11    12   1
    12    12     6   1
    13     6    10   1
    14     7     8   1
    15     8    13   1
    16    13    28   1
    17    28    29   1
    18    29    30   1
    19    30    31   1
    20    31    32   1
    21    32    33   1
    22    33    34   1
    23    34    35   1
    24    35    36   1
    25    36    27   1
    26    27    26   1
    27    26    23   1
    28    23    24   1
    29    23    18   1
    30    18    19   1
    31    18    17   2
    32    17    22   1
    33    17    16   1
    34    16    14  am
    35    14    20   1
    36    14    21   2
    37    20    19   2
    38    22    25   1
    39    25    24   1
    40     2    37   1
    41     5    38   1
    42     6    39   1
    43     6    40   1
    44     7    41   1
    45     7    42   1
    46     8    43   1
    47     8    44   1
    48     9    45   1
    49    10    46   1
    50    10    47   1
    51    11    48   1
    52    12    49   1
    53    12    50   1
    54    13    51   1
    55    13    52   1
    56    16    53   1
    57    19    54   1
    58    20    55   1
    59    22    56   1
    60    22    57   1
    61    23    58   1
    62    24    59   1
    63    24    60   1
    64    25    61   1
    65    25    62   1
    66    26    63   1
    67    26    64   1
    68    27    65   1
    69    27    66   1
    70    28    67   1
    71    28    68   1
    72    29    69   1
    73    29    70   1
    74    30    71   1
    75    30    72   1
    76    31    73   1
    77    31    74   1
    78    32    75   1
    79    32    76   1
    80    33    77   1
    81    33    78   1
    82    34    79   1
    83    34    80   1
    84    35    81   1
    85    35    82   1
    86    36    83   1
    87    36    84   1
@<TRIPOS>SUBSTRUCTURE
     1  E12      1

