@<TRIPOS>MOLECULE
1h23_ligand_085
    84    87
SMALL
GAST_HUCK
****
This file was generated by PARSER (from files_GN.cpp)

@<TRIPOS>ATOM
      1 C1          3.4215   56.6315   71.2248 C.2         1 E12       0.1811
      2 N2          2.6561   55.8977   72.0293 N.am        1 E12      -0.2230
      3 O7          4.1782   56.0732   70.4441 O.2         1 E12      -0.4310
      4 C4          1.6396   57.8022   72.9638 C.2         1 E12       0.0225
      5 C5          2.5123   58.5576   72.1937 C.2         1 E12      -0.0779
      6 C14         0.2694   56.1583   74.9004 C.3         1 E12      -0.0310
      7 N17         0.0016   59.6189   73.1315 N.4         1 E12       0.2346
      8 C24        -1.2864   60.1984   73.5947 C.3         1 E12      -0.0329
      9 C6          3.3699   57.9905   71.3195 C.2         1 E12      -0.0278
     10 C9          1.0284   55.5037   73.7234 C.3         1 E12       0.0189
     11 C10         0.6357   58.4596   73.8375 C.3         1 E12      -0.0032
     12 C13        -0.4111   57.4589   74.4275 C.3         1 E12      -0.0041
     13 C63        -1.4067   61.7191   73.3103 C.3         1 E12      -0.0126
     14 C29         0.5814   67.8419   65.8941 C.2         1 E12       0.1811
     15 C3          1.7845   56.4451   72.9077 C.2         1 E12       0.0883
     16 N30         1.0160   67.8103   64.6351 N.am        1 E12      -0.2230
     17 C31         2.2897   68.1211   64.2965 C.2         1 E12       0.0883
     18 C32         3.1748   68.4756   65.2700 C.2         1 E12       0.0225
     19 C33         2.6888   68.6089   66.5608 C.2         1 E12      -0.0779
     20 C34         1.4216   68.2744   66.8781 C.2         1 E12      -0.0278
     21 O35        -0.5636   67.4972   66.1465 O.2         1 E12      -0.4310
     22 C36         2.6072   68.1297   62.8729 C.3         1 E12       0.0189
     23 C37         4.6091   68.7063   64.9898 C.3         1 E12      -0.0032
     24 C38         4.8547   69.1547   63.5165 C.3         1 E12      -0.0041
     25 C39         4.1175   68.2153   62.5326 C.3         1 E12      -0.0310
     26 N40         5.4945   67.5226   65.2339 N.4         1 E12       0.2346
     27 C41         5.4938   66.8417   66.5532 C.3         1 E12      -0.0329
     28 C64        -1.1178   62.1849   71.8459 C.3         1 E12      -0.0483
     29 C65        -0.2129   63.4470   71.8030 C.3         1 E12      -0.0529
     30 C66         0.2150   63.9005   70.3805 C.3         1 E12      -0.0531
     31 C67         1.3891   64.9226   70.3919 C.3         1 E12      -0.0531
     32 C68         2.7691   64.2961   70.7610 C.3         1 E12      -0.0531
     33 C69         4.0009   65.2273   70.5498 C.3         1 E12      -0.0531
     34 C70         4.7174   65.1137   69.1728 C.3         1 E12      -0.0529
     35 C71         3.8043   65.4331   67.9594 C.3         1 E12      -0.0483
     36 C72         4.5325   65.6169   66.6037 C.3         1 E12      -0.0126
     37 H1          2.7216   54.9303   71.9766 H           1 E12       0.2526
     38 H2          2.5202   59.5472   72.2786 H           1 E12       0.0600
     39 H3         -0.4774   55.4651   75.2936 H           1 E12       0.0298
     40 H4          0.9724   56.3910   75.7057 H           1 E12       0.0298
     41 H5         -0.1244   59.3578   72.1516 H           1 E12       0.2022
     42 H6          0.6864   60.3767   73.1544 H           1 E12       0.2022
     43 H7         -1.4035   60.0732   74.6737 H           1 E12       0.0814
     44 H8         -2.1068   59.6762   73.0996 H           1 E12       0.0814
     45 H9          3.9730   58.5582   70.7695 H           1 E12       0.0298
     46 H10         1.7094   54.7547   74.1395 H           1 E12       0.0511
     47 H11         0.3143   54.9849   73.0781 H           1 E12       0.0511
     48 H12         1.1890   58.8825   74.6830 H           1 E12       0.0913
     49 H13        -1.1606   57.2191   73.6675 H           1 E12       0.0333
     50 H14        -0.9198   57.9021   75.2863 H           1 E12       0.0333
     51 H15        -0.7320   62.2198   74.0112 H           1 E12       0.0317
     52 H16        -2.4209   62.0351   73.5764 H           1 E12       0.0317
     53 H17         0.4017   67.5283   63.9397 H           1 E12       0.2526
     54 H18         3.2753   68.9780   67.2762 H           1 E12       0.0600
     55 H19         1.0968   68.3737   67.8144 H           1 E12       0.0298
     56 H20         2.0977   68.9869   62.4257 H           1 E12       0.0511
     57 H21         2.2040   67.2278   62.4092 H           1 E12       0.0511
     58 H22         4.9676   69.5270   65.6220 H           1 E12       0.0913
     59 H23         5.9248   69.1554   63.2886 H           1 E12       0.0333
     60 H24         4.4919   70.1742   63.3786 H           1 E12       0.0333
     61 H25         4.2477   68.5756   61.5095 H           1 E12       0.0298
     62 H26         4.5534   67.2149   62.5869 H           1 E12       0.0298
     63 H27         5.2951   66.8164   64.5228 H           1 E12       0.2022
     64 H28         6.4538   67.8459   65.0750 H           1 E12       0.2022
     65 H29         6.5092   66.4777   66.7364 H           1 E12       0.0814
     66 H30         5.2683   67.5642   67.3415 H           1 E12       0.0814
     67 H31        -2.0638   62.3965   71.3372 H           1 E12       0.0267
     68 H32        -0.6232   61.3902   71.2846 H           1 E12       0.0267
     69 H33         0.6842   63.2240   72.3823 H           1 E12       0.0265
     70 H34        -0.7359   64.2748   72.2908 H           1 E12       0.0265
     71 H35        -0.6462   64.3572   69.8851 H           1 E12       0.0265
     72 H36         0.5046   63.0337   69.7810 H           1 E12       0.0265
     73 H37         1.1657   65.7276   71.0990 H           1 E12       0.0265
     74 H38         1.4416   65.3729   69.4005 H           1 E12       0.0265
     75 H39         2.9205   63.3711   70.1984 H           1 E12       0.0265
     76 H40         2.7454   64.0270   71.8187 H           1 E12       0.0265
     77 H41         4.7516   64.9788   71.3058 H           1 E12       0.0265
     78 H42         3.7134   66.2677   70.7277 H           1 E12       0.0265
     79 H43         5.1258   64.1038   69.0542 H           1 E12       0.0265
     80 H44         5.5626   65.8095   69.1821 H           1 E12       0.0265
     81 H45         3.2378   66.3424   68.1708 H           1 E12       0.0267
     82 H46         3.0915   64.6127   67.8414 H           1 E12       0.0267
     83 H47         3.7612   65.7272   65.8373 H           1 E12       0.0317
     84 H48         5.0832   64.7015   66.3662 H           1 E12       0.0317
@<TRIPOS>BOND
     1     1     9   1
     2     1     3   2
     3     1     2  am
     4     2    15   1
     5    15    10   1
     6    15     4   2
     7     4    11   1
     8     4     5   1
     9     5     9   2
    10    11     7   1
    11    11    12   1
    12    12     6   1
    13     6    10   1
    14     7     8   1
    15     8    13   1
    16    13    28   1
    17    28    29   1
    18    29    30   1
    19    30    31   1
    20    31    32   1
    21    32    33   1
    22    33    34   1
    23    34    35   1
    24    35    36   1
    25    36    27   1
    26    27    26   1
    27    26    23   1
    28    23    24   1
    29    23    18   1
    30    18    19   1
    31    18    17   2
    32    17    22   1
    33    17    16   1
    34    16    14  am
    35    14    20   1
    36    14    21   2
    37    20    19   2
    38    22    25   1
    39    25    24   1
    40     2    37   1
    41     5    38   1
    42     6    39   1
    43     6    40   1
    44     7    41   1
    45     7    42   1
    46     8    43   1
    47     8    44   1
    48     9    45   1
    49    10    46   1
    50    10    47   1
    51    11    48   1
    52    12    49   1
    53    12    50   1
    54    13    51   1
    55    13    52   1
    56    16    53   1
    57    19    54   1
    58    20    55   1
    59    22    56   1
    60    22    57   1
    61    23    58   1
    62    24    59   1
    63    24    60   1
    64    25    61   1
    65    25    62   1
    66    26    63   1
    67    26    64   1
    68    27    65   1
    69    27    66   1
    70    28    67   1
    71    28    68   1
    72    29    69   1
    73    29    70   1
    74    30    71   1
    75    30    72   1
    76    31    73   1
    77    31    74   1
    78    32    75   1
    79    32    76   1
    80    33    77   1
    81    33    78   1
    82    34    79   1
    83    34    80   1
    84    35    81   1
    85    35    82   1
    86    36    83   1
    87    36    84   1
@<TRIPOS>SUBSTRUCTURE
     1  E12      1

