@<TRIPOS>MOLECULE
1h23_ligand_008
    84    87
SMALL
GAST_HUCK
****
This file was generated by PARSER (from files_GN.cpp)

@<TRIPOS>ATOM
      1 C1          1.4233   68.5052   61.3117 C.2         1 E12       0.1811
      2 N2          1.4670   67.8110   62.4521 N.am        1 E12      -0.2230
      3 O7          0.4411   69.1826   61.0442 O.2         1 E12      -0.4310
      4 C4          3.6651   67.1236   62.0516 C.2         1 E12       0.0225
      5 C5          3.5909   67.7698   60.8303 C.2         1 E12      -0.0779
      6 C14         3.4790   65.1497   64.1223 C.3         1 E12      -0.0310
      7 N17         6.0893   67.4813   62.4879 N.4         1 E12       0.2346
      8 C24         5.9493   68.8873   62.9698 C.3         1 E12      -0.0329
      9 C6          2.4856   68.4473   60.4592 C.2         1 E12      -0.0278
     10 C9          2.4488   66.3069   64.0541 C.3         1 E12       0.0189
     11 C10         4.9425   66.5184   62.4610 C.3         1 E12      -0.0032
     12 C13         4.9054   65.6328   63.7531 C.3         1 E12      -0.0041
     13 C63         5.9526   69.0960   64.5131 C.3         1 E12      -0.0126
     14 C29         3.9493   57.5575   70.8055 C.2         1 E12       0.1811
     15 C3          2.5525   67.0981   62.8342 C.2         1 E12       0.0883
     16 N30         3.8951   57.8509   72.1003 N.am        1 E12      -0.2230
     17 C31         3.2934   58.9684   72.5728 C.2         1 E12       0.0883
     18 C32         2.6407   59.7951   71.7063 C.2         1 E12       0.0225
     19 C33         2.7402   59.5077   70.3546 C.2         1 E12      -0.0779
     20 C34         3.3772   58.4094   69.9051 C.2         1 E12      -0.0278
     21 O35         4.5236   56.5409   70.4480 O.2         1 E12      -0.4310
     22 C36         3.4087   59.2249   74.0023 C.3         1 E12       0.0189
     23 C37         1.9507   61.0315   72.1405 C.3         1 E12      -0.0032
     24 C38         1.8816   61.2124   73.6932 C.3         1 E12      -0.0041
     25 C39         3.1642   60.7053   74.3852 C.3         1 E12      -0.0310
     26 N40         0.5760   61.1006   71.5532 N.4         1 E12       0.2346
     27 C41        -0.2560   62.3274   71.6981 C.3         1 E12      -0.0329
     28 C64         4.5666   69.3186   65.2043 C.3         1 E12      -0.0483
     29 C65         4.2229   68.2636   66.2877 C.3         1 E12      -0.0529
     30 C66         2.9947   68.6002   67.1848 C.3         1 E12      -0.0531
     31 C67         2.7344   67.4803   68.2318 C.3         1 E12      -0.0531
     32 C68         1.8033   67.8981   69.4015 C.3         1 E12      -0.0531
     33 C69         1.0003   66.7312   70.0488 C.3         1 E12      -0.0531
     34 C70         1.8563   65.5095   70.4949 C.3         1 E12      -0.0529
     35 C71         1.1415   64.5435   71.4827 C.3         1 E12      -0.0483
     36 C72         0.1658   63.5348   70.8070 C.3         1 E12      -0.0126
     37 H1          0.6923   67.8416   63.0382 H           1 E12       0.2526
     38 H2          4.3538   67.7338   60.2013 H           1 E12       0.0600
     39 H3          3.4789   64.7255   65.1295 H           1 E12       0.0298
     40 H4          3.1806   64.3629   63.4195 H           1 E12       0.0298
     41 H5          6.4370   67.5437   61.5228 H           1 E12       0.2022
     42 H6          6.8372   67.0541   63.0298 H           1 E12       0.2022
     43 H7          5.0941   69.3864   62.5115 H           1 E12       0.0814
     44 H8          6.8293   69.3974   62.5738 H           1 E12       0.0814
     45 H9          2.4592   68.8962   59.5734 H           1 E12       0.0298
     46 H10         1.4466   65.8679   64.1288 H           1 E12       0.0511
     47 H11         2.5724   66.9654   64.9151 H           1 E12       0.0511
     48 H12         5.1828   65.8143   61.6599 H           1 E12       0.0913
     49 H13         5.3130   66.1746   64.5967 H           1 E12       0.0333
     50 H14         5.5389   64.7552   63.6197 H           1 E12       0.0333
     51 H15         6.5589   69.9803   64.7286 H           1 E12       0.0317
     52 H16         6.4888   68.2636   64.9716 H           1 E12       0.0317
     53 H17         4.3317   57.2528   72.7276 H           1 E12       0.2526
     54 H18         2.3589   60.1316   69.6796 H           1 E12       0.0600
     55 H19         3.4451   58.2384   68.9298 H           1 E12       0.0298
     56 H20         4.4097   58.9542   74.3487 H           1 E12       0.0511
     57 H21         2.6911   58.5883   74.5259 H           1 E12       0.0511
     58 H22         2.5431   61.8505   71.7278 H           1 E12       0.0913
     59 H23         1.0272   60.6570   74.0935 H           1 E12       0.0333
     60 H24         1.7420   62.2671   73.9454 H           1 E12       0.0333
     61 H25         4.0165   61.3142   74.0676 H           1 E12       0.0298
     62 H26         3.0662   60.7971   75.4703 H           1 E12       0.0298
     63 H27         0.6548   60.9347   70.5488 H           1 E12       0.2022
     64 H28         0.0373   60.3235   71.9453 H           1 E12       0.2022
     65 H29        -1.2619   62.0282   71.3865 H           1 E12       0.0814
     66 H30        -0.3339   62.6262   72.7459 H           1 E12       0.0814
     67 H31         3.7620   69.3215   64.4643 H           1 E12       0.0267
     68 H32         4.5666   70.3056   65.6747 H           1 E12       0.0267
     69 H33         5.0819   68.1077   66.9418 H           1 E12       0.0265
     70 H34         4.0337   67.3166   65.7803 H           1 E12       0.0265
     71 H35         2.1037   68.7144   66.5613 H           1 E12       0.0265
     72 H36         3.1747   69.5531   67.6935 H           1 E12       0.0265
     73 H37         3.6941   67.1708   68.6569 H           1 E12       0.0265
     74 H38         2.2959   66.6163   67.7206 H           1 E12       0.0265
     75 H39         1.0823   68.6380   69.0380 H           1 E12       0.0265
     76 H40         2.4100   68.3807   70.1718 H           1 E12       0.0265
     77 H41         0.2392   66.3927   69.3410 H           1 E12       0.0265
     78 H42         0.4848   67.1320   70.9262 H           1 E12       0.0265
     79 H43         2.7595   65.8856   70.9828 H           1 E12       0.0265
     80 H44         2.1741   64.9444   69.6157 H           1 E12       0.0265
     81 H45         0.5953   65.1213   72.2339 H           1 E12       0.0267
     82 H46         1.9207   63.9969   72.0127 H           1 E12       0.0267
     83 H47         0.6068   63.1513   69.8829 H           1 E12       0.0317
     84 H48        -0.7373   64.0894   70.5312 H           1 E12       0.0317
@<TRIPOS>BOND
     1     1     9   1
     2     1     3   2
     3     1     2  am
     4     2    15   1
     5    15    10   1
     6    15     4   2
     7     4    11   1
     8     4     5   1
     9     5     9   2
    10    11     7   1
    11    11    12   1
    12    12     6   1
    13     6    10   1
    14     7     8   1
    15     8    13   1
    16    13    28   1
    17    28    29   1
    18    29    30   1
    19    30    31   1
    20    31    32   1
    21    32    33   1
    22    33    34   1
    23    34    35   1
    24    35    36   1
    25    36    27   1
    26    27    26   1
    27    26    23   1
    28    23    24   1
    29    23    18   1
    30    18    19   1
    31    18    17   2
    32    17    22   1
    33    17    16   1
    34    16    14  am
    35    14    20   1
    36    14    21   2
    37    20    19   2
    38    22    25   1
    39    25    24   1
    40     2    37   1
    41     5    38   1
    42     6    39   1
    43     6    40   1
    44     7    41   1
    45     7    42   1
    46     8    43   1
    47     8    44   1
    48     9    45   1
    49    10    46   1
    50    10    47   1
    51    11    48   1
    52    12    49   1
    53    12    50   1
    54    13    51   1
    55    13    52   1
    56    16    53   1
    57    19    54   1
    58    20    55   1
    59    22    56   1
    60    22    57   1
    61    23    58   1
    62    24    59   1
    63    24    60   1
    64    25    61   1
    65    25    62   1
    66    26    63   1
    67    26    64   1
    68    27    65   1
    69    27    66   1
    70    28    67   1
    71    28    68   1
    72    29    69   1
    73    29    70   1
    74    30    71   1
    75    30    72   1
    76    31    73   1
    77    31    74   1
    78    32    75   1
    79    32    76   1
    80    33    77   1
    81    33    78   1
    82    34    79   1
    83    34    80   1
    84    35    81   1
    85    35    82   1
    86    36    83   1
    87    36    84   1
@<TRIPOS>SUBSTRUCTURE
     1  E12      1

