@<TRIPOS>MOLECULE
1h23_ligand_028
    84    87
SMALL
GAST_HUCK
****
This file was generated by PARSER (from files_GN.cpp)

@<TRIPOS>ATOM
      1 C1          1.1616   56.8736   79.4568 C.2         1 E12       0.1811
      2 N2          2.4776   57.0576   79.5319 N.am        1 E12      -0.2230
      3 O7          0.4516   57.2205   80.3908 O.2         1 E12      -0.4310
      4 C4          2.8103   56.2164   77.3674 C.2         1 E12       0.0225
      5 C5          1.4462   55.9802   77.3137 C.2         1 E12      -0.0779
      6 C14         5.6414   56.0971   77.8041 C.3         1 E12      -0.0310
      7 N17         3.1271   56.5431   74.9152 N.4         1 E12       0.2346
      8 C24         2.6377   57.9556   74.8942 C.3         1 E12      -0.0329
      9 C6          0.6282   56.3166   78.3337 C.2         1 E12      -0.0278
     10 C9          4.7398   56.9278   78.7537 C.3         1 E12       0.0189
     11 C10         3.6554   55.9436   76.1835 C.3         1 E12      -0.0032
     12 C13         5.1727   56.2775   76.3386 C.3         1 E12      -0.0041
     13 C63         3.6652   59.0427   74.4679 C.3         1 E12      -0.0126
     14 C29         2.3880   68.3720   60.9153 C.2         1 E12       0.1811
     15 C3          3.3206   56.7123   78.5296 C.2         1 E12       0.0883
     16 N30         3.7001   68.1478   60.9829 N.am        1 E12      -0.2230
     17 C31         4.4031   68.2966   62.1288 C.2         1 E12       0.0883
     18 C32         3.7688   68.7092   63.2634 C.2         1 E12       0.0225
     19 C33         2.3976   68.8902   63.1993 C.2         1 E12      -0.0779
     20 C34         1.7139   68.7380   62.0440 C.2         1 E12      -0.0278
     21 O35         1.8277   68.2772   59.8326 O.2         1 E12      -0.4310
     22 C36         5.8416   68.1098   62.0120 C.3         1 E12       0.0189
     23 C37         4.4972   69.0715   64.4989 C.3         1 E12      -0.0032
     24 C38         6.0404   69.2033   64.2993 C.3         1 E12      -0.0041
     25 C39         6.5972   68.1066   63.3584 C.3         1 E12      -0.0310
     26 N40         4.0867   68.2651   65.6939 N.4         1 E12       0.2346
     27 C41         4.7907   66.9982   65.9951 C.3         1 E12      -0.0329
     28 C64         4.0254   59.0021   72.9499 C.3         1 E12      -0.0483
     29 C65         4.7099   60.2776   72.3737 C.3         1 E12      -0.0529
     30 C66         3.8861   61.5914   72.5596 C.3         1 E12      -0.0531
     31 C67         4.0203   62.6683   71.4521 C.3         1 E12      -0.0531
     32 C68         5.4754   63.0739   71.0767 C.3         1 E12      -0.0531
     33 C69         5.5736   64.3001   70.1174 C.3         1 E12      -0.0531
     34 C70         4.5915   64.2655   68.9065 C.3         1 E12      -0.0529
     35 C71         5.0495   65.0351   67.6289 C.3         1 E12      -0.0483
     36 C72         4.4434   66.4480   67.4081 C.3         1 E12      -0.0126
     37 H1          2.8443   57.4612   80.3324 H           1 E12       0.2526
     38 H2          1.0424   55.5555   76.5063 H           1 E12       0.0600
     39 H3          6.6795   56.4252   77.9015 H           1 E12       0.0298
     40 H4          5.5898   55.0386   78.0783 H           1 E12       0.0298
     41 H5          2.3308   55.9638   74.6311 H           1 E12       0.2022
     42 H6          3.8441   56.4323   74.1976 H           1 E12       0.2022
     43 H7          2.2294   58.2420   75.8642 H           1 E12       0.0814
     44 H8          1.7977   57.9871   74.1871 H           1 E12       0.0814
     45 H9         -0.3543   56.1512   78.2638 H           1 E12       0.0298
     46 H10         4.9995   56.6510   79.7811 H           1 E12       0.0511
     47 H11         4.9570   57.9932   78.6273 H           1 E12       0.0511
     48 H12         3.5960   54.8598   76.0326 H           1 E12       0.0913
     49 H13         5.3604   57.3111   76.0448 H           1 E12       0.0333
     50 H14         5.7621   55.6230   75.6881 H           1 E12       0.0333
     51 H15         4.5757   58.9377   75.0644 H           1 E12       0.0317
     52 H16         3.2172   60.0135   74.6945 H           1 E12       0.0317
     53 H17         4.1856   67.9014   60.1751 H           1 E12       0.2526
     54 H18         1.8949   69.1698   64.0091 H           1 E12       0.0600
     55 H19         0.7314   68.8934   62.0183 H           1 E12       0.0298
     56 H20         6.2401   68.9147   61.3859 H           1 E12       0.0511
     57 H21         6.0442   67.1591   61.5091 H           1 E12       0.0511
     58 H22         4.1707   70.0847   64.7474 H           1 E12       0.0913
     59 H23         6.5589   69.1588   65.2562 H           1 E12       0.0333
     60 H24         6.2710   70.1765   63.8490 H           1 E12       0.0333
     61 H25         7.6605   68.2644   63.1712 H           1 E12       0.0298
     62 H26         6.4924   67.1236   63.8174 H           1 E12       0.0298
     63 H27         4.1886   68.8706   66.5070 H           1 E12       0.2022
     64 H28         3.0898   68.0532   65.5930 H           1 E12       0.2022
     65 H29         4.5295   66.2572   65.2387 H           1 E12       0.0814
     66 H30         5.8662   67.1838   65.9665 H           1 E12       0.0814
     67 H31         3.1071   58.8253   72.3681 H           1 E12       0.0267
     68 H32         4.6972   58.1516   72.7751 H           1 E12       0.0267
     69 H33         4.8730   60.1044   71.3044 H           1 E12       0.0265
     70 H34         5.6948   60.4021   72.8314 H           1 E12       0.0265
     71 H35         4.1506   62.0324   73.5249 H           1 E12       0.0265
     72 H36         2.8231   61.3404   72.6018 H           1 E12       0.0265
     73 H37         3.4971   63.5640   71.7863 H           1 E12       0.0265
     74 H38         3.5113   62.3027   70.5590 H           1 E12       0.0265
     75 H39         5.9770   62.2216   70.6090 H           1 E12       0.0265
     76 H40         6.0236   63.3132   71.9910 H           1 E12       0.0265
     77 H41         6.6042   64.3289   69.7421 H           1 E12       0.0265
     78 H42         5.4089   65.2222   70.6872 H           1 E12       0.0265
     79 H43         3.6136   64.6456   69.2222 H           1 E12       0.0265
     80 H44         4.4466   63.2231   68.6233 H           1 E12       0.0265
     81 H45         4.7744   64.4271   66.7636 H           1 E12       0.0267
     82 H46         6.1428   65.1126   67.6359 H           1 E12       0.0267
     83 H47         4.8252   67.1334   68.1700 H           1 E12       0.0317
     84 H48         3.3504   66.3952   67.5034 H           1 E12       0.0317
@<TRIPOS>BOND
     1     1     9   1
     2     1     3   2
     3     1     2  am
     4     2    15   1
     5    15    10   1
     6    15     4   2
     7     4    11   1
     8     4     5   1
     9     5     9   2
    10    11     7   1
    11    11    12   1
    12    12     6   1
    13     6    10   1
    14     7     8   1
    15     8    13   1
    16    13    28   1
    17    28    29   1
    18    29    30   1
    19    30    31   1
    20    31    32   1
    21    32    33   1
    22    33    34   1
    23    34    35   1
    24    35    36   1
    25    36    27   1
    26    27    26   1
    27    26    23   1
    28    23    24   1
    29    23    18   1
    30    18    19   1
    31    18    17   2
    32    17    22   1
    33    17    16   1
    34    16    14  am
    35    14    20   1
    36    14    21   2
    37    20    19   2
    38    22    25   1
    39    25    24   1
    40     2    37   1
    41     5    38   1
    42     6    39   1
    43     6    40   1
    44     7    41   1
    45     7    42   1
    46     8    43   1
    47     8    44   1
    48     9    45   1
    49    10    46   1
    50    10    47   1
    51    11    48   1
    52    12    49   1
    53    12    50   1
    54    13    51   1
    55    13    52   1
    56    16    53   1
    57    19    54   1
    58    20    55   1
    59    22    56   1
    60    22    57   1
    61    23    58   1
    62    24    59   1
    63    24    60   1
    64    25    61   1
    65    25    62   1
    66    26    63   1
    67    26    64   1
    68    27    65   1
    69    27    66   1
    70    28    67   1
    71    28    68   1
    72    29    69   1
    73    29    70   1
    74    30    71   1
    75    30    72   1
    76    31    73   1
    77    31    74   1
    78    32    75   1
    79    32    76   1
    80    33    77   1
    81    33    78   1
    82    34    79   1
    83    34    80   1
    84    35    81   1
    85    35    82   1
    86    36    83   1
    87    36    84   1
@<TRIPOS>SUBSTRUCTURE
     1  E12      1

