@<TRIPOS>MOLECULE
1h23_ligand_018
    84    87
SMALL
GAST_HUCK
****
This file was generated by PARSER (from files_GN.cpp)

@<TRIPOS>ATOM
      1 C1         -0.9788   60.3778   72.7198 C.2         1 E12       0.1811
      2 N2         -1.0904   59.2544   73.4201 N.am        1 E12      -0.2230
      3 O7         -1.8579   61.2231   72.7934 O.2         1 E12      -0.4310
      4 C4          0.9476   58.4315   72.6006 C.2         1 E12       0.0225
      5 C5          1.0106   59.5618   71.8046 C.2         1 E12      -0.0779
      6 C14         0.5122   55.8818   73.8674 C.3         1 E12      -0.0310
      7 N17         3.4233   58.0288   72.4929 N.4         1 E12       0.2346
      8 C24         3.8216   59.1249   73.4187 C.3         1 E12      -0.0329
      9 C6          0.0699   60.5276   71.8611 C.2         1 E12      -0.0278
     10 C9         -0.4250   57.0784   74.1738 C.3         1 E12       0.0189
     11 C10         2.0481   57.4453   72.5772 C.3         1 E12      -0.0032
     12 C13         1.9695   56.3736   73.7081 C.3         1 E12      -0.0041
     13 C63         4.8830   60.0554   72.7594 C.3         1 E12      -0.0126
     14 C29         2.5474   68.4382   60.7244 C.2         1 E12       0.1811
     15 C3         -0.1578   58.2751   73.3832 C.2         1 E12       0.0883
     16 N30         3.8464   68.2155   60.9095 N.am        1 E12      -0.2230
     17 C31         4.4322   68.3132   62.1218 C.2         1 E12       0.0883
     18 C32         3.6710   68.5790   63.2220 C.2         1 E12       0.0225
     19 C33         2.3483   68.9242   63.0026 C.2         1 E12      -0.0779
     20 C34         1.7804   68.8318   61.7825 C.2         1 E12      -0.0278
     21 O35         2.0656   68.2942   59.6133 O.2         1 E12      -0.4310
     22 C36         5.8714   68.0983   62.1597 C.3         1 E12       0.0189
     23 C37         4.2008   68.5160   64.6030 C.3         1 E12      -0.0032
     24 C38         5.6814   68.0130   64.6794 C.3         1 E12      -0.0041
     25 C39         6.5343   68.5132   63.4929 C.3         1 E12      -0.0310
     26 N40         3.3362   67.6226   65.4322 N.4         1 E12       0.2346
     27 C41         3.4952   67.6096   66.9081 C.3         1 E12      -0.0329
     28 C64         4.3175   61.3789   72.1611 C.3         1 E12      -0.0483
     29 C65         5.1817   61.9586   71.0048 C.3         1 E12      -0.0529
     30 C66         4.9920   63.4737   70.7001 C.3         1 E12      -0.0531
     31 C67         3.5297   63.9444   70.4726 C.3         1 E12      -0.0531
     32 C68         3.4061   65.4642   70.1480 C.3         1 E12      -0.0531
     33 C69         1.9772   65.8711   69.6923 C.3         1 E12      -0.0531
     34 C70         1.6094   67.3782   69.8356 C.3         1 E12      -0.0529
     35 C71         2.5247   68.4515   69.1882 C.3         1 E12      -0.0483
     36 C72         2.5018   68.5544   67.6318 C.3         1 E12      -0.0126
     37 H1         -1.8711   59.1323   73.9835 H           1 E12       0.2526
     38 H2          1.7244   59.6461   71.1197 H           1 E12       0.0600
     39 H3          0.4481   55.1426   74.6709 H           1 E12       0.0298
     40 H4          0.1918   55.3949   72.9387 H           1 E12       0.0298
     41 H5          3.5317   58.3816   71.5375 H           1 E12       0.2022
     42 H6          4.0896   57.2563   72.6296 H           1 E12       0.2022
     43 H7          4.2532   58.6691   74.3155 H           1 E12       0.0814
     44 H8          2.9554   59.7191   73.7390 H           1 E12       0.0814
     45 H9          0.1182   61.3099   71.2484 H           1 E12       0.0298
     46 H10        -1.4530   56.7518   73.9949 H           1 E12       0.0511
     47 H11        -0.3383   57.3410   75.2312 H           1 E12       0.0511
     48 H12         1.9164   56.9015   71.6355 H           1 E12       0.0913
     49 H13         2.3067   56.7997   74.6594 H           1 E12       0.0333
     50 H14         2.6137   55.5222   73.4686 H           1 E12       0.0333
     51 H15         5.4151   59.4826   71.9847 H           1 E12       0.0317
     52 H16         5.6281   60.3315   73.5162 H           1 E12       0.0317
     53 H17         4.3957   67.9651   60.1475 H           1 E12       0.2526
     54 H18         1.7933   69.2667   63.7532 H           1 E12       0.0600
     55 H19         0.8242   69.0776   61.6526 H           1 E12       0.0298
     56 H20         6.3456   68.6820   61.3659 H           1 E12       0.0511
     57 H21         6.0704   67.0412   61.9646 H           1 E12       0.0511
     58 H22         4.1620   69.5362   65.0088 H           1 E12       0.0913
     59 H23         5.7079   66.9194   64.6782 H           1 E12       0.0333
     60 H24         6.1494   68.3514   65.6035 H           1 E12       0.0333
     61 H25         6.6166   69.6027   63.5421 H           1 E12       0.0298
     62 H26         7.5374   68.0855   63.5481 H           1 E12       0.0298
     63 H27         2.3583   67.8511   65.2479 H           1 E12       0.2022
     64 H28         3.4861   66.6647   65.0992 H           1 E12       0.2022
     65 H29         3.3106   66.5865   67.2315 H           1 E12       0.0814
     66 H30         4.5188   67.8609   67.2084 H           1 E12       0.0814
     67 H31         4.2486   62.1179   72.9694 H           1 E12       0.0267
     68 H32         3.3053   61.2125   71.7786 H           1 E12       0.0267
     69 H33         4.9685   61.3891   70.0950 H           1 E12       0.0265
     70 H34         6.2341   61.8044   71.2434 H           1 E12       0.0265
     71 H35         5.5739   63.7038   69.7985 H           1 E12       0.0265
     72 H36         5.4310   64.0510   71.5224 H           1 E12       0.0265
     73 H37         2.9445   63.7466   71.3825 H           1 E12       0.0265
     74 H38         3.0868   63.3587   69.6506 H           1 E12       0.0265
     75 H39         4.1190   65.7184   69.3551 H           1 E12       0.0265
     76 H40         3.6805   66.0367   71.0405 H           1 E12       0.0265
     77 H41         1.2544   65.3186   70.2987 H           1 E12       0.0265
     78 H42         1.8276   65.5608   68.6559 H           1 E12       0.0265
     79 H43         1.5517   67.5988   70.9069 H           1 E12       0.0265
     80 H44         0.5960   67.5115   69.4422 H           1 E12       0.0265
     81 H45         3.5547   68.3201   69.5435 H           1 E12       0.0267
     82 H46         2.1775   69.4203   69.5700 H           1 E12       0.0267
     83 H47         2.7625   69.5759   67.3462 H           1 E12       0.0317
     84 H48         1.4869   68.3608   67.2654 H           1 E12       0.0317
@<TRIPOS>BOND
     1     1     9   1
     2     1     3   2
     3     1     2  am
     4     2    15   1
     5    15    10   1
     6    15     4   2
     7     4    11   1
     8     4     5   1
     9     5     9   2
    10    11     7   1
    11    11    12   1
    12    12     6   1
    13     6    10   1
    14     7     8   1
    15     8    13   1
    16    13    28   1
    17    28    29   1
    18    29    30   1
    19    30    31   1
    20    31    32   1
    21    32    33   1
    22    33    34   1
    23    34    35   1
    24    35    36   1
    25    36    27   1
    26    27    26   1
    27    26    23   1
    28    23    24   1
    29    23    18   1
    30    18    19   1
    31    18    17   2
    32    17    22   1
    33    17    16   1
    34    16    14  am
    35    14    20   1
    36    14    21   2
    37    20    19   2
    38    22    25   1
    39    25    24   1
    40     2    37   1
    41     5    38   1
    42     6    39   1
    43     6    40   1
    44     7    41   1
    45     7    42   1
    46     8    43   1
    47     8    44   1
    48     9    45   1
    49    10    46   1
    50    10    47   1
    51    11    48   1
    52    12    49   1
    53    12    50   1
    54    13    51   1
    55    13    52   1
    56    16    53   1
    57    19    54   1
    58    20    55   1
    59    22    56   1
    60    22    57   1
    61    23    58   1
    62    24    59   1
    63    24    60   1
    64    25    61   1
    65    25    62   1
    66    26    63   1
    67    26    64   1
    68    27    65   1
    69    27    66   1
    70    28    67   1
    71    28    68   1
    72    29    69   1
    73    29    70   1
    74    30    71   1
    75    30    72   1
    76    31    73   1
    77    31    74   1
    78    32    75   1
    79    32    76   1
    80    33    77   1
    81    33    78   1
    82    34    79   1
    83    34    80   1
    84    35    81   1
    85    35    82   1
    86    36    83   1
    87    36    84   1
@<TRIPOS>SUBSTRUCTURE
     1  E12      1

