@<TRIPOS>MOLECULE
1h23_ligand_035
    84    87
SMALL
GAST_HUCK
****
This file was generated by PARSER (from files_GN.cpp)

@<TRIPOS>ATOM
      1 C1          3.8922   57.5762   70.8637 C.2         1 E12       0.1811
      2 N2          3.8732   57.8771   72.1592 N.am        1 E12      -0.2230
      3 O7          4.4885   56.5747   70.4963 O.2         1 E12      -0.4310
      4 C4          2.5283   59.7688   71.7968 C.2         1 E12       0.0225
      5 C5          2.6056   59.4820   70.4418 C.2         1 E12      -0.0779
      6 C14         2.9702   60.6387   74.5127 C.3         1 E12      -0.0310
      7 N17         0.4145   60.9966   71.6278 N.4         1 E12       0.2346
      8 C24        -0.5638   62.0380   72.0379 C.3         1 E12      -0.0329
      9 C6          3.2561   58.3952   69.9783 C.2         1 E12      -0.0278
     10 C9          3.3756   59.2099   74.0752 C.3         1 E12       0.0189
     11 C10         1.7668   60.9508   72.2662 C.3         1 E12      -0.0032
     12 C13         1.6504   61.0415   73.8239 C.3         1 E12      -0.0041
     13 C63        -0.1339   63.5211   71.8754 C.3         1 E12      -0.0126
     14 C29         5.8258   69.2297   62.5510 C.2         1 E12       0.1811
     15 C3          3.2433   58.9716   72.6452 C.2         1 E12       0.0883
     16 N30         5.2940   68.0891   62.1097 N.am        1 E12      -0.2230
     17 C31         5.0882   67.0211   62.9147 C.2         1 E12       0.0883
     18 C32         5.5091   67.0672   64.2141 C.2         1 E12       0.0225
     19 C33         6.0962   68.2404   64.6509 C.2         1 E12      -0.0779
     20 C34         6.2012   69.3252   63.8577 C.2         1 E12      -0.0278
     21 O35         6.0614   70.1243   61.7517 O.2         1 E12      -0.4310
     22 C36         4.4548   65.8573   62.3016 C.3         1 E12       0.0189
     23 C37         5.4824   65.8862   65.0978 C.3         1 E12      -0.0032
     24 C38         5.2550   64.5454   64.3280 C.3         1 E12      -0.0041
     25 C39         4.1354   64.6915   63.2740 C.3         1 E12      -0.0310
     26 N40         4.5871   65.9730   66.2897 N.4         1 E12       0.2346
     27 C41         3.3843   66.8482   66.3517 C.3         1 E12      -0.0329
     28 C64         0.1160   63.9597   70.4064 C.3         1 E12      -0.0483
     29 C65         0.8280   65.3363   70.2629 C.3         1 E12      -0.0529
     30 C66        -0.0821   66.5971   70.3281 C.3         1 E12      -0.0531
     31 C67        -1.1365   66.7369   69.1808 C.3         1 E12      -0.0531
     32 C68        -0.9835   67.9992   68.2750 C.3         1 E12      -0.0531
     33 C69         0.0327   67.8818   67.0861 C.3         1 E12      -0.0531
     34 C70         1.1440   68.9769   67.0445 C.3         1 E12      -0.0529
     35 C71         2.3862   68.6950   67.9429 C.3         1 E12      -0.0483
     36 C72         3.6338   68.1153   67.2212 C.3         1 E12      -0.0126
     37 H1          4.3455   57.2899   72.7755 H           1 E12       0.2526
     38 H2          2.1812   60.0887   69.7785 H           1 E12       0.0600
     39 H3          2.8521   60.6737   75.5979 H           1 E12       0.0298
     40 H4          3.7573   61.3479   74.2336 H           1 E12       0.0298
     41 H5         -0.0289   60.0860   71.7780 H           1 E12       0.2022
     42 H6          0.5455   61.1068   70.6212 H           1 E12       0.2022
     43 H7         -0.8399   61.8635   73.0823 H           1 E12       0.0814
     44 H8         -1.4681   61.8769   71.4454 H           1 E12       0.0814
     45 H9          3.2857   58.2118   69.0001 H           1 E12       0.0298
     46 H10         4.4146   59.0524   74.3794 H           1 E12       0.0511
     47 H11         2.7575   58.4778   74.6032 H           1 E12       0.0511
     48 H12         2.3340   61.8221   71.9214 H           1 E12       0.0913
     49 H13         0.8544   60.3804   74.1741 H           1 E12       0.0333
     50 H14         1.4009   62.0618   74.1219 H           1 E12       0.0333
     51 H15         0.7616   63.7069   72.4733 H           1 E12       0.0317
     52 H16        -0.9359   64.1297   72.2956 H           1 E12       0.0317
     53 H17         5.1195   68.0014   61.1543 H           1 E12       0.2526
     54 H18         6.4391   68.2997   65.5803 H           1 E12       0.0600
     55 H19         6.5798   70.1729   64.2165 H           1 E12       0.0298
     56 H20         5.1187   65.4943   61.5145 H           1 E12       0.0511
     57 H21         3.5184   66.1658   61.8230 H           1 E12       0.0511
     58 H22         6.4888   65.7802   65.5196 H           1 E12       0.0913
     59 H23         5.0041   63.7325   65.0135 H           1 E12       0.0333
     60 H24         6.1796   64.2616   63.8119 H           1 E12       0.0333
     61 H25         4.0464   63.7608   62.7150 H           1 E12       0.0298
     62 H26         3.1825   64.8760   63.7755 H           1 E12       0.0298
     63 H27         4.2658   65.0263   66.4921 H           1 E12       0.2022
     64 H28         5.1901   66.2363   67.0725 H           1 E12       0.2022
     65 H29         3.0300   67.1308   65.3555 H           1 E12       0.0814
     66 H30         2.6092   66.2477   66.8270 H           1 E12       0.0814
     67 H31        -0.8369   63.9681   69.8677 H           1 E12       0.0267
     68 H32         0.7523   63.2111   69.9299 H           1 E12       0.0267
     69 H33         1.3695   65.3551   69.3156 H           1 E12       0.0265
     70 H34         1.5803   65.4160   71.0530 H           1 E12       0.0265
     71 H35         0.5698   67.4733   70.3388 H           1 E12       0.0265
     72 H36        -0.5994   66.6171   71.2900 H           1 E12       0.0265
     73 H37        -2.1265   66.7835   69.6481 H           1 E12       0.0265
     74 H38        -1.1525   65.8465   68.5507 H           1 E12       0.0265
     75 H39        -0.7472   68.8662   68.8985 H           1 E12       0.0265
     76 H40        -1.9693   68.2122   67.8456 H           1 E12       0.0265
     77 H41        -0.5354   67.9644   66.1513 H           1 E12       0.0265
     78 H42         0.4984   66.8943   67.0732 H           1 E12       0.0265
     79 H43         0.7048   69.9329   67.3464 H           1 E12       0.0265
     80 H44         1.4743   69.1062   66.0091 H           1 E12       0.0265
     81 H45         2.1161   68.0216   68.7589 H           1 E12       0.0267
     82 H46         2.6987   69.6402   68.3975 H           1 E12       0.0267
     83 H47         4.3655   67.8705   67.9989 H           1 E12       0.0317
     84 H48         4.0667   68.9015   66.6004 H           1 E12       0.0317
@<TRIPOS>BOND
     1     1     9   1
     2     1     3   2
     3     1     2  am
     4     2    15   1
     5    15    10   1
     6    15     4   2
     7     4    11   1
     8     4     5   1
     9     5     9   2
    10    11     7   1
    11    11    12   1
    12    12     6   1
    13     6    10   1
    14     7     8   1
    15     8    13   1
    16    13    28   1
    17    28    29   1
    18    29    30   1
    19    30    31   1
    20    31    32   1
    21    32    33   1
    22    33    34   1
    23    34    35   1
    24    35    36   1
    25    36    27   1
    26    27    26   1
    27    26    23   1
    28    23    24   1
    29    23    18   1
    30    18    19   1
    31    18    17   2
    32    17    22   1
    33    17    16   1
    34    16    14  am
    35    14    20   1
    36    14    21   2
    37    20    19   2
    38    22    25   1
    39    25    24   1
    40     2    37   1
    41     5    38   1
    42     6    39   1
    43     6    40   1
    44     7    41   1
    45     7    42   1
    46     8    43   1
    47     8    44   1
    48     9    45   1
    49    10    46   1
    50    10    47   1
    51    11    48   1
    52    12    49   1
    53    12    50   1
    54    13    51   1
    55    13    52   1
    56    16    53   1
    57    19    54   1
    58    20    55   1
    59    22    56   1
    60    22    57   1
    61    23    58   1
    62    24    59   1
    63    24    60   1
    64    25    61   1
    65    25    62   1
    66    26    63   1
    67    26    64   1
    68    27    65   1
    69    27    66   1
    70    28    67   1
    71    28    68   1
    72    29    69   1
    73    29    70   1
    74    30    71   1
    75    30    72   1
    76    31    73   1
    77    31    74   1
    78    32    75   1
    79    32    76   1
    80    33    77   1
    81    33    78   1
    82    34    79   1
    83    34    80   1
    84    35    81   1
    85    35    82   1
    86    36    83   1
    87    36    84   1
@<TRIPOS>SUBSTRUCTURE
     1  E12      1

