@<TRIPOS>MOLECULE
1h23_ligand_091
    84    87
SMALL
GAST_HUCK
****
This file was generated by PARSER (from files_GN.cpp)

@<TRIPOS>ATOM
      1 C1          2.4355   68.2824   60.9325 C.2         1 E12       0.1811
      2 N2          3.7558   68.1284   60.9818 N.am        1 E12      -0.2230
      3 O7          1.8584   68.1204   59.8649 O.2         1 E12      -0.4310
      4 C4          3.8365   68.7851   63.2378 C.2         1 E12       0.0225
      5 C5          2.4589   68.8858   63.1956 C.2         1 E12      -0.0779
      6 C14         6.6995   68.3580   63.2834 C.3         1 E12      -0.0310
      7 N17         4.2525   68.4804   65.6702 N.4         1 E12       0.2346
      8 C24         4.9173   67.1725   65.8685 C.3         1 E12      -0.0329
      9 C6          1.7612   68.6583   62.0554 C.2         1 E12      -0.0278
     10 C9          5.9142   68.2583   61.9607 C.3         1 E12       0.0189
     11 C10         4.5702   69.2529   64.4309 C.3         1 E12      -0.0032
     12 C13         6.1021   69.4686   64.1854 C.3         1 E12      -0.0041
     13 C63         4.4780   66.4803   67.1813 C.3         1 E12      -0.0126
     14 C29        -3.3047   61.4022   76.5839 C.2         1 E12       0.1811
     15 C3          4.4720   68.3628   62.1019 C.2         1 E12       0.0883
     16 N30        -2.3139   61.9606   77.2712 N.am        1 E12      -0.2230
     17 C31        -1.2382   62.5203   76.6710 C.2         1 E12       0.0883
     18 C32        -1.1968   62.6065   75.3094 C.2         1 E12       0.0225
     19 C33        -2.1989   61.9572   74.6072 C.2         1 E12      -0.0779
     20 C34        -3.2466   61.3768   75.2244 C.2         1 E12      -0.0278
     21 O35        -4.2368   60.8870   77.1891 O.2         1 E12      -0.4310
     22 C36        -0.1702   62.9888   77.5468 C.3         1 E12       0.0189
     23 C37        -0.0809   63.2508   74.5825 C.3         1 E12      -0.0032
     24 C38         0.9436   63.9815   75.5106 C.3         1 E12      -0.0041
     25 C39         1.1831   63.2061   76.8225 C.3         1 E12      -0.0310
     26 N40        -0.5279   64.2715   73.5757 N.4         1 E12       0.2346
     27 C41        -0.5817   63.9086   72.1333 C.3         1 E12      -0.0329
     28 C64         5.2795   65.1632   67.4067 C.3         1 E12      -0.0483
     29 C65         4.8093   64.3123   68.6265 C.3         1 E12      -0.0529
     30 C66         5.7536   64.3227   69.8605 C.3         1 E12      -0.0531
     31 C67         5.5652   63.1404   70.8615 C.3         1 E12      -0.0531
     32 C68         4.1019   62.8319   71.3158 C.3         1 E12      -0.0531
     33 C69         3.3295   61.7250   70.5124 C.3         1 E12      -0.0531
     34 C70         2.0726   62.1720   69.7001 C.3         1 E12      -0.0529
     35 C71         0.7618   62.4215   70.4960 C.3         1 E12      -0.0483
     36 C72         0.8091   63.6081   71.5025 C.3         1 E12      -0.0126
     37 H1          4.2416   67.8790   60.1761 H           1 E12       0.2526
     38 H2          1.9544   69.1670   64.0051 H           1 E12       0.0600
     39 H3          6.6625   67.3909   63.7824 H           1 E12       0.0298
     40 H4          7.7465   68.5643   63.0633 H           1 E12       0.0298
     41 H5          3.2407   68.3343   65.7045 H           1 E12       0.2022
     42 H6          4.5063   69.0739   66.4656 H           1 E12       0.2022
     43 H7          5.9957   67.3336   65.9331 H           1 E12       0.0814
     44 H8          4.6910   66.5184   65.0178 H           1 E12       0.0814
     45 H9          0.7730   68.7650   62.0445 H           1 E12       0.0298
     46 H10         6.2485   69.0570   61.2908 H           1 E12       0.0511
     47 H11         6.1594   67.2962   61.4986 H           1 E12       0.0511
     48 H12         4.1863   70.2519   64.6467 H           1 E12       0.0913
     49 H13         6.6412   69.5078   65.1340 H           1 E12       0.0333
     50 H14         6.2586   70.4293   63.6839 H           1 E12       0.0333
     51 H15         3.4062   66.2574   67.1155 H           1 E12       0.0317
     52 H16         4.6481   67.1609   68.0262 H           1 E12       0.0317
     53 H17        -2.3454   61.9402   78.2402 H           1 E12       0.2526
     54 H18        -2.1490   61.8694   73.6238 H           1 E12       0.0600
     55 H19        -3.9429   60.9028   74.6956 H           1 E12       0.0298
     56 H20        -0.0055   62.2594   78.3456 H           1 E12       0.0511
     57 H21        -0.4917   63.9269   78.0086 H           1 E12       0.0511
     58 H22         0.4647   62.4372   74.0910 H           1 E12       0.0913
     59 H23         0.5678   64.9759   75.7713 H           1 E12       0.0333
     60 H24         1.8950   64.1070   74.9854 H           1 E12       0.0333
     61 H25         1.6456   62.2375   76.6010 H           1 E12       0.0298
     62 H26         1.8615   63.7701   77.4695 H           1 E12       0.0298
     63 H27        -1.4629   64.5863   73.8384 H           1 E12       0.2022
     64 H28         0.0959   65.0832   73.6383 H           1 E12       0.2022
     65 H29        -1.2681   63.0756   71.9882 H           1 E12       0.0814
     66 H30        -1.0141   64.7669   71.6077 H           1 E12       0.0814
     67 H31         6.3444   65.4102   67.5007 H           1 E12       0.0267
     68 H32         5.1700   64.5518   66.5027 H           1 E12       0.0267
     69 H33         4.6806   63.2768   68.2924 H           1 E12       0.0265
     70 H34         3.8344   64.6794   68.9580 H           1 E12       0.0265
     71 H35         5.6060   65.2671   70.3969 H           1 E12       0.0265
     72 H36         6.7930   64.3005   69.5194 H           1 E12       0.0265
     73 H37         6.1424   63.4019   71.7549 H           1 E12       0.0265
     74 H38         6.0270   62.2358   70.4516 H           1 E12       0.0265
     75 H39         3.5503   63.7747   71.3187 H           1 E12       0.0265
     76 H40         4.1482   62.4957   72.3611 H           1 E12       0.0265
     77 H41         3.0136   60.9321   71.2061 H           1 E12       0.0265
     78 H42         4.0203   61.2522   69.8037 H           1 E12       0.0265
     79 H43         1.8528   61.3714   68.9845 H           1 E12       0.0265
     80 H44         2.2993   63.0591   69.1115 H           1 E12       0.0265
     81 H45         0.4973   61.5055   71.0366 H           1 E12       0.0267
     82 H46        -0.0320   62.6210   69.7625 H           1 E12       0.0267
     83 H47         1.1819   64.5120   70.9951 H           1 E12       0.0317
     84 H48         1.5168   63.3539   72.2910 H           1 E12       0.0317
@<TRIPOS>BOND
     1     1     9   1
     2     1     3   2
     3     1     2  am
     4     2    15   1
     5    15    10   1
     6    15     4   2
     7     4    11   1
     8     4     5   1
     9     5     9   2
    10    11     7   1
    11    11    12   1
    12    12     6   1
    13     6    10   1
    14     7     8   1
    15     8    13   1
    16    13    28   1
    17    28    29   1
    18    29    30   1
    19    30    31   1
    20    31    32   1
    21    32    33   1
    22    33    34   1
    23    34    35   1
    24    35    36   1
    25    36    27   1
    26    27    26   1
    27    26    23   1
    28    23    24   1
    29    23    18   1
    30    18    19   1
    31    18    17   2
    32    17    22   1
    33    17    16   1
    34    16    14  am
    35    14    20   1
    36    14    21   2
    37    20    19   2
    38    22    25   1
    39    25    24   1
    40     2    37   1
    41     5    38   1
    42     6    39   1
    43     6    40   1
    44     7    41   1
    45     7    42   1
    46     8    43   1
    47     8    44   1
    48     9    45   1
    49    10    46   1
    50    10    47   1
    51    11    48   1
    52    12    49   1
    53    12    50   1
    54    13    51   1
    55    13    52   1
    56    16    53   1
    57    19    54   1
    58    20    55   1
    59    22    56   1
    60    22    57   1
    61    23    58   1
    62    24    59   1
    63    24    60   1
    64    25    61   1
    65    25    62   1
    66    26    63   1
    67    26    64   1
    68    27    65   1
    69    27    66   1
    70    28    67   1
    71    28    68   1
    72    29    69   1
    73    29    70   1
    74    30    71   1
    75    30    72   1
    76    31    73   1
    77    31    74   1
    78    32    75   1
    79    32    76   1
    80    33    77   1
    81    33    78   1
    82    34    79   1
    83    34    80   1
    84    35    81   1
    85    35    82   1
    86    36    83   1
    87    36    84   1
@<TRIPOS>SUBSTRUCTURE
     1  E12      1

