@<TRIPOS>MOLECULE
1h23_ligand_052
    84    87
SMALL
GAST_HUCK
****
This file was generated by PARSER (from files_GN.cpp)

@<TRIPOS>ATOM
      1 C1          5.5386   68.8260   62.8373 C.2         1 E12       0.1811
      2 N2          4.3833   69.0796   63.4501 N.am        1 E12      -0.2230
      3 O7          6.3311   69.7396   62.6646 O.2         1 E12      -0.4310
      4 C4          3.7525   66.8289   63.3700 C.2         1 E12       0.0225
      5 C5          4.8986   66.5874   62.6332 C.2         1 E12      -0.0779
      6 C14         1.0820   67.4831   64.2149 C.3         1 E12      -0.0310
      7 N17         3.6182   64.5481   64.3692 N.4         1 E12       0.2346
      8 C24         4.2891   64.6275   65.7015 C.3         1 E12      -0.0329
      9 C6          5.8010   67.5624   62.3987 C.2         1 E12      -0.0278
     10 C9          2.2190   68.5335   64.3330 C.3         1 E12       0.0189
     11 C10         2.8853   65.7047   63.7711 C.3         1 E12      -0.0032
     12 C13         1.6252   66.0964   64.6158 C.3         1 E12      -0.0041
     13 C63         5.5287   65.5562   65.8154 C.3         1 E12      -0.0126
     14 C29         3.8953   57.5755   70.8339 C.2         1 E12       0.1811
     15 C3          3.4638   68.1206   63.6945 C.2         1 E12       0.0883
     16 N30         3.8514   57.8625   72.1314 N.am        1 E12      -0.2230
     17 C31         3.2548   58.9791   72.6110 C.2         1 E12       0.0883
     18 C32         2.5998   59.8174   71.7548 C.2         1 E12       0.0225
     19 C33         2.6914   59.5331   70.4000 C.2         1 E12      -0.0779
     20 C34         3.3161   58.4289   69.9419 C.2         1 E12      -0.0278
     21 O35         4.4679   56.5573   70.4711 O.2         1 E12      -0.4310
     22 C36         3.3629   59.2144   74.0447 C.3         1 E12       0.0189
     23 C37         1.8713   61.0243   72.2058 C.3         1 E12      -0.0032
     24 C38         1.8504   61.2168   73.7613 C.3         1 E12      -0.0041
     25 C39         3.1359   60.6929   74.4380 C.3         1 E12      -0.0310
     26 N40         0.4683   61.0047   71.6845 N.4         1 E12       0.2346
     27 C41        -0.3634   62.2338   71.8023 C.3         1 E12      -0.0329
     28 C64         6.1747   65.8138   67.2206 C.3         1 E12      -0.0483
     29 C65         5.7756   64.9292   68.4511 C.3         1 E12      -0.0529
     30 C66         4.9654   65.6272   69.5833 C.3         1 E12      -0.0531
     31 C67         3.7278   66.4545   69.1383 C.3         1 E12      -0.0531
     32 C68         2.8342   66.9323   70.3272 C.3         1 E12      -0.0531
     33 C69         1.3506   66.4761   70.2824 C.3         1 E12      -0.0531
     34 C70         1.1536   64.9398   70.4279 C.3         1 E12      -0.0529
     35 C71        -0.3391   64.5278   70.5173 C.3         1 E12      -0.0483
     36 C72        -0.5728   62.9894   70.4534 C.3         1 E12      -0.0126
     37 H1          4.2052   69.9844   63.7488 H           1 E12       0.2526
     38 H2          5.0833   65.6769   62.2769 H           1 E12       0.0600
     39 H3          0.2497   67.7619   64.8685 H           1 E12       0.0298
     40 H4          0.7097   67.4513   63.1852 H           1 E12       0.0298
     41 H5          4.3268   64.2446   63.6976 H           1 E12       0.2022
     42 H6          2.9353   63.7872   64.4383 H           1 E12       0.2022
     43 H7          4.6196   63.6149   65.9305 H           1 E12       0.0814
     44 H8          3.5562   64.8928   66.4573 H           1 E12       0.0814
     45 H9          6.6389   67.3561   61.9060 H           1 E12       0.0298
     46 H10         1.8657   69.4642   63.8801 H           1 E12       0.0511
     47 H11         2.4238   68.7297   65.3890 H           1 E12       0.0511
     48 H12         2.4967   65.3243   62.8243 H           1 E12       0.0913
     49 H13         1.8656   66.1431   65.6782 H           1 E12       0.0333
     50 H14         0.8465   65.3402   64.4862 H           1 E12       0.0333
     51 H15         5.2634   66.5332   65.4148 H           1 E12       0.0317
     52 H16         6.2906   65.1459   65.1412 H           1 E12       0.0317
     53 H17         4.2835   57.2530   72.7538 H           1 E12       0.2526
     54 H18         2.3025   60.1617   69.7340 H           1 E12       0.0600
     55 H19         3.3648   58.2542   68.9648 H           1 E12       0.0298
     56 H20         4.3582   58.9266   74.3953 H           1 E12       0.0511
     57 H21         2.6324   58.5799   74.5543 H           1 E12       0.0511
     58 H22         2.3909   61.8861   71.7697 H           1 E12       0.0913
     59 H23         0.9982   60.6793   74.1897 H           1 E12       0.0333
     60 H24         1.7389   62.2735   74.0117 H           1 E12       0.0333
     61 H25         3.9900   61.2970   74.1170 H           1 E12       0.0298
     62 H26         3.0468   60.7758   75.5242 H           1 E12       0.0298
     63 H27         0.4968   60.7513   70.6963 H           1 E12       0.2022
     64 H28        -0.0236   60.2468   72.1690 H           1 E12       0.2022
     65 H29        -1.3417   61.9188   72.1715 H           1 E12       0.0814
     66 H30         0.0382   62.9115   72.5567 H           1 E12       0.0814
     67 H31         5.9840   66.8639   67.4890 H           1 E12       0.0267
     68 H32         7.2611   65.7262   67.0897 H           1 E12       0.0267
     69 H33         6.6972   64.5580   68.9166 H           1 E12       0.0265
     70 H34         5.2159   64.0427   68.1286 H           1 E12       0.0265
     71 H35         5.6347   66.2815   70.1487 H           1 E12       0.0265
     72 H36         4.6303   64.8466   70.2734 H           1 E12       0.0265
     73 H37         3.1335   65.8546   68.4533 H           1 E12       0.0265
     74 H38         4.0797   67.3259   68.5760 H           1 E12       0.0265
     75 H39         2.8534   68.0229   70.3577 H           1 E12       0.0265
     76 H40         3.2574   66.5908   71.2706 H           1 E12       0.0265
     77 H41         0.8990   66.8166   69.3459 H           1 E12       0.0265
     78 H42         0.8196   66.9711   71.1018 H           1 E12       0.0265
     79 H43         1.6777   64.5895   71.3211 H           1 E12       0.0265
     80 H44         1.5975   64.4437   69.5631 H           1 E12       0.0265
     81 H45        -0.8724   64.9839   69.6783 H           1 E12       0.0267
     82 H46        -0.7782   64.9277   71.4353 H           1 E12       0.0267
     83 H47         0.0645   62.5660   69.6732 H           1 E12       0.0317
     84 H48        -1.6053   62.8238   70.1286 H           1 E12       0.0317
@<TRIPOS>BOND
     1     1     9   1
     2     1     3   2
     3     1     2  am
     4     2    15   1
     5    15    10   1
     6    15     4   2
     7     4    11   1
     8     4     5   1
     9     5     9   2
    10    11     7   1
    11    11    12   1
    12    12     6   1
    13     6    10   1
    14     7     8   1
    15     8    13   1
    16    13    28   1
    17    28    29   1
    18    29    30   1
    19    30    31   1
    20    31    32   1
    21    32    33   1
    22    33    34   1
    23    34    35   1
    24    35    36   1
    25    36    27   1
    26    27    26   1
    27    26    23   1
    28    23    24   1
    29    23    18   1
    30    18    19   1
    31    18    17   2
    32    17    22   1
    33    17    16   1
    34    16    14  am
    35    14    20   1
    36    14    21   2
    37    20    19   2
    38    22    25   1
    39    25    24   1
    40     2    37   1
    41     5    38   1
    42     6    39   1
    43     6    40   1
    44     7    41   1
    45     7    42   1
    46     8    43   1
    47     8    44   1
    48     9    45   1
    49    10    46   1
    50    10    47   1
    51    11    48   1
    52    12    49   1
    53    12    50   1
    54    13    51   1
    55    13    52   1
    56    16    53   1
    57    19    54   1
    58    20    55   1
    59    22    56   1
    60    22    57   1
    61    23    58   1
    62    24    59   1
    63    24    60   1
    64    25    61   1
    65    25    62   1
    66    26    63   1
    67    26    64   1
    68    27    65   1
    69    27    66   1
    70    28    67   1
    71    28    68   1
    72    29    69   1
    73    29    70   1
    74    30    71   1
    75    30    72   1
    76    31    73   1
    77    31    74   1
    78    32    75   1
    79    32    76   1
    80    33    77   1
    81    33    78   1
    82    34    79   1
    83    34    80   1
    84    35    81   1
    85    35    82   1
    86    36    83   1
    87    36    84   1
@<TRIPOS>SUBSTRUCTURE
     1  E12      1

