@<TRIPOS>MOLECULE
1h23_ligand_069
    84    87
SMALL
GAST_HUCK
****
This file was generated by PARSER (from files_GN.cpp)

@<TRIPOS>ATOM
      1 C1          0.6128   67.7755   64.4330 C.2         1 E12       0.1811
      2 N2          1.3425   66.6696   64.5631 N.am        1 E12      -0.2230
      3 O7         -0.4394   67.8800   65.0517 O.2         1 E12      -0.4310
      4 C4          3.0588   67.5548   63.2309 C.2         1 E12       0.0225
      5 C5          2.2470   68.6525   63.0154 C.2         1 E12      -0.0779
      6 C14         4.3380   64.9814   63.0766 C.3         1 E12      -0.0310
      7 N17         5.2273   68.7537   62.8843 N.4         1 E12       0.2346
      8 C24         5.6847   69.2128   64.2237 C.3         1 E12      -0.0329
      9 C6          1.0512   68.7831   63.6274 C.2         1 E12      -0.0278
     10 C9          3.2065   65.2282   64.1087 C.3         1 E12       0.0189
     11 C10         4.4188   67.5148   62.6597 C.3         1 E12      -0.0032
     12 C13         5.2438   66.2302   62.9938 C.3         1 E12      -0.0041
     13 C63         4.5725   69.4574   65.2879 C.3         1 E12      -0.0126
     14 C29         3.3144   56.8460   70.8197 C.2         1 E12       0.1811
     15 C3          2.5397   66.5163   63.9476 C.2         1 E12       0.0883
     16 N30         2.4138   56.4396   71.7129 N.am        1 E12      -0.2230
     17 C31         1.6325   57.3050   72.4024 C.2         1 E12       0.0883
     18 C32         1.8061   58.6441   72.2237 C.2         1 E12       0.0225
     19 C33         2.7062   59.0578   71.2592 C.2         1 E12      -0.0779
     20 C34         3.4488   58.1774   70.5622 C.2         1 E12      -0.0278
     21 O35         4.0184   56.0187   70.2595 O.2         1 E12      -0.4310
     22 C36         0.6865   56.7300   73.3530 C.3         1 E12       0.0189
     23 C37         1.1176   59.6566   73.0408 C.3         1 E12      -0.0032
     24 C38         0.4066   59.0696   74.3014 C.3         1 E12      -0.0041
     25 C39        -0.3156   57.7467   73.9604 C.3         1 E12      -0.0310
     26 N40         0.1510   60.4225   72.1959 N.4         1 E12       0.2346
     27 C41         0.2680   61.9037   72.2339 C.3         1 E12      -0.0329
     28 C64         4.2730   68.2368   66.1997 C.3         1 E12      -0.0483
     29 C65         3.1033   68.5000   67.1859 C.3         1 E12      -0.0529
     30 C66         3.0025   67.4329   68.3097 C.3         1 E12      -0.0531
     31 C67         1.7026   67.5645   69.1541 C.3         1 E12      -0.0531
     32 C68         1.6738   66.6929   70.4462 C.3         1 E12      -0.0531
     33 C69         1.3057   65.1855   70.2967 C.3         1 E12      -0.0531
     34 C70        -0.2196   64.8834   70.3362 C.3         1 E12      -0.0529
     35 C71        -0.6144   63.3780   70.2050 C.3         1 E12      -0.0483
     36 C72        -0.9218   62.6278   71.5402 C.3         1 E12      -0.0126
     37 H1          1.0097   65.9532   65.1278 H           1 E12       0.2526
     38 H2          2.5422   69.3757   62.4039 H           1 E12       0.0600
     39 H3          4.9320   64.1131   63.3758 H           1 E12       0.0298
     40 H4          3.9115   64.7796   62.0870 H           1 E12       0.0298
     41 H5          4.7096   69.5317   62.4705 H           1 E12       0.2022
     42 H6          6.0750   68.6336   62.3254 H           1 E12       0.2022
     43 H7          6.1778   70.1692   64.0330 H           1 E12       0.0814
     44 H8          6.4632   68.5525   64.6178 H           1 E12       0.0814
     45 H9          0.4955   69.5937   63.4746 H           1 E12       0.0298
     46 H10         2.4812   64.4197   63.9997 H           1 E12       0.0511
     47 H11         3.6126   65.1644   65.1236 H           1 E12       0.0511
     48 H12         4.2520   67.4773   61.5789 H           1 E12       0.0913
     49 H13         5.7434   66.3266   63.9594 H           1 E12       0.0333
     50 H14         6.0157   66.0799   62.2276 H           1 E12       0.0333
     51 H15         3.6559   69.7916   64.7862 H           1 E12       0.0317
     52 H16         4.8969   70.2782   65.9347 H           1 E12       0.0317
     53 H17         2.3277   55.4887   71.8873 H           1 E12       0.2526
     54 H18         2.8176   60.0274   71.0659 H           1 E12       0.0600
     55 H19         4.0864   58.4985   69.8713 H           1 E12       0.0298
     56 H20         1.2588   56.2657   74.1610 H           1 E12       0.0511
     57 H21         0.1109   55.9421   72.8564 H           1 E12       0.0511
     58 H22         1.8926   60.3359   73.4236 H           1 E12       0.0913
     59 H23        -0.3102   59.7869   74.7100 H           1 E12       0.0333
     60 H24         1.1512   58.8701   75.0767 H           1 E12       0.0333
     61 H25        -0.7676   57.3254   74.8623 H           1 E12       0.0298
     62 H26        -1.1160   57.9448   73.2425 H           1 E12       0.0298
     63 H27         0.2546   60.1343   71.2170 H           1 E12       0.2022
     64 H28        -0.8006   60.1690   72.4880 H           1 E12       0.2022
     65 H29         0.3139   62.2251   73.2828 H           1 E12       0.0814
     66 H30         1.2172   62.1792   71.7624 H           1 E12       0.0814
     67 H31         5.1806   67.9870   66.7721 H           1 E12       0.0267
     68 H32         4.0177   67.3734   65.5848 H           1 E12       0.0267
     69 H33         2.1604   68.5192   66.6172 H           1 E12       0.0265
     70 H34         3.2460   69.4861   67.6497 H           1 E12       0.0265
     71 H35         3.8705   67.5454   68.9748 H           1 E12       0.0265
     72 H36         3.0386   66.4308   67.8652 H           1 E12       0.0265
     73 H37         0.8335   67.3261   68.5321 H           1 E12       0.0265
     74 H38         1.6014   68.6063   69.4757 H           1 E12       0.0265
     75 H39         0.9634   67.1408   71.1504 H           1 E12       0.0265
     76 H40         2.6598   66.7493   70.9205 H           1 E12       0.0265
     77 H41         1.7754   64.6535   71.1318 H           1 E12       0.0265
     78 H42         1.7288   64.7880   69.3671 H           1 E12       0.0265
     79 H43        -0.6915   65.4330   69.5164 H           1 E12       0.0265
     80 H44        -0.6395   65.2881   71.2632 H           1 E12       0.0265
     81 H45         0.1437   62.8332   69.6318 H           1 E12       0.0267
     82 H46        -1.5300   63.3425   69.6092 H           1 E12       0.0267
     83 H47        -1.7077   61.8875   71.3497 H           1 E12       0.0317
     84 H48        -1.3542   63.3356   72.2529 H           1 E12       0.0317
@<TRIPOS>BOND
     1     1     9   1
     2     1     3   2
     3     1     2  am
     4     2    15   1
     5    15    10   1
     6    15     4   2
     7     4    11   1
     8     4     5   1
     9     5     9   2
    10    11     7   1
    11    11    12   1
    12    12     6   1
    13     6    10   1
    14     7     8   1
    15     8    13   1
    16    13    28   1
    17    28    29   1
    18    29    30   1
    19    30    31   1
    20    31    32   1
    21    32    33   1
    22    33    34   1
    23    34    35   1
    24    35    36   1
    25    36    27   1
    26    27    26   1
    27    26    23   1
    28    23    24   1
    29    23    18   1
    30    18    19   1
    31    18    17   2
    32    17    22   1
    33    17    16   1
    34    16    14  am
    35    14    20   1
    36    14    21   2
    37    20    19   2
    38    22    25   1
    39    25    24   1
    40     2    37   1
    41     5    38   1
    42     6    39   1
    43     6    40   1
    44     7    41   1
    45     7    42   1
    46     8    43   1
    47     8    44   1
    48     9    45   1
    49    10    46   1
    50    10    47   1
    51    11    48   1
    52    12    49   1
    53    12    50   1
    54    13    51   1
    55    13    52   1
    56    16    53   1
    57    19    54   1
    58    20    55   1
    59    22    56   1
    60    22    57   1
    61    23    58   1
    62    24    59   1
    63    24    60   1
    64    25    61   1
    65    25    62   1
    66    26    63   1
    67    26    64   1
    68    27    65   1
    69    27    66   1
    70    28    67   1
    71    28    68   1
    72    29    69   1
    73    29    70   1
    74    30    71   1
    75    30    72   1
    76    31    73   1
    77    31    74   1
    78    32    75   1
    79    32    76   1
    80    33    77   1
    81    33    78   1
    82    34    79   1
    83    34    80   1
    84    35    81   1
    85    35    82   1
    86    36    83   1
    87    36    84   1
@<TRIPOS>SUBSTRUCTURE
     1  E12      1

