@<TRIPOS>MOLECULE
1h23_ligand_077
    84    87
SMALL
GAST_HUCK
****
This file was generated by PARSER (from files_GN.cpp)

@<TRIPOS>ATOM
      1 C1          2.2336   60.9051   77.9301 C.2         1 E12       0.1811
      2 N2          1.2201   61.7613   77.8861 N.am        1 E12      -0.2230
      3 O7          2.6490   60.5258   79.0152 O.2         1 E12      -0.4310
      4 C4          1.1719   61.7173   75.5374 C.2         1 E12       0.0225
      5 C5          2.2900   60.9051   75.5959 C.2         1 E12      -0.0779
      6 C14        -0.6858   63.9130   75.4817 C.3         1 E12      -0.0310
      7 N17         0.4286   60.8887   73.3537 N.4         1 E12       0.2346
      8 C24        -0.1285   60.9803   71.9756 C.3         1 E12      -0.0329
      9 C6          2.8034   60.4795   76.7670 C.2         1 E12      -0.0278
     10 C9         -0.3605   63.2061   76.8215 C.3         1 E12       0.0189
     11 C10         0.5825   62.0874   74.2271 C.3         1 E12      -0.0032
     12 C13        -0.7712   62.8566   74.3599 C.3         1 E12      -0.0041
     13 C63         0.5557   62.0037   71.0148 C.3         1 E12      -0.0126
     14 C29         2.5086   68.3938   60.7956 C.2         1 E12       0.1811
     15 C3          0.6992   62.2126   76.7209 C.2         1 E12       0.0883
     16 N30         3.8092   68.1544   60.9607 N.am        1 E12      -0.2230
     17 C31         4.4306   68.2853   62.1537 C.2         1 E12       0.0883
     18 C32         3.7210   68.7058   63.2363 C.2         1 E12       0.0225
     19 C33         2.3654   68.9380   63.0690 C.2         1 E12      -0.0779
     20 C34         1.7617   68.7885   61.8701 C.2         1 E12      -0.0278
     21 O35         2.0157   68.2757   59.6933 O.2         1 E12      -0.4310
     22 C36         5.8698   68.0567   62.1465 C.3         1 E12       0.0189
     23 C37         4.3640   69.0452   64.5237 C.3         1 E12      -0.0032
     24 C38         5.9276   68.9907   64.5128 C.3         1 E12      -0.0041
     25 C39         6.5004   67.9255   63.5492 C.3         1 E12      -0.0310
     26 N40         3.7411   68.3753   65.7053 N.4         1 E12       0.2346
     27 C41         3.9673   66.9312   65.9788 C.3         1 E12      -0.0329
     28 C64        -0.2447   63.3274   70.7533 C.3         1 E12      -0.0483
     29 C65         0.3694   64.6320   71.3531 C.3         1 E12      -0.0529
     30 C66         1.2862   65.4238   70.3843 C.3         1 E12      -0.0531
     31 C67         2.4469   64.6212   69.7319 C.3         1 E12      -0.0531
     32 C68         3.7956   64.7010   70.5016 C.3         1 E12      -0.0531
     33 C69         5.0078   64.0704   69.7495 C.3         1 E12      -0.0531
     34 C70         5.9055   65.0374   68.9208 C.3         1 E12      -0.0529
     35 C71         5.4140   65.3857   67.4807 C.3         1 E12      -0.0483
     36 C72         4.5813   66.6965   67.3886 C.3         1 E12      -0.0126
     37 H1          0.8369   62.0795   78.7185 H           1 E12       0.2526
     38 H2          2.7490   60.6268   74.7591 H           1 E12       0.0600
     39 H3         -1.6281   64.4611   75.5569 H           1 E12       0.0298
     40 H4          0.1091   64.6259   75.2410 H           1 E12       0.0298
     41 H5         -0.1629   60.2211   73.8551 H           1 E12       0.2022
     42 H6          1.3526   60.4624   73.2488 H           1 E12       0.2022
     43 H7         -1.2073   61.1355   72.0287 H           1 E12       0.0814
     44 H8          0.0025   59.9817   71.5478 H           1 E12       0.0814
     45 H9          3.6008   59.8896   76.7794 H           1 E12       0.0298
     46 H10        -0.0754   63.9780   77.5433 H           1 E12       0.0511
     47 H11        -1.2638   62.7158   77.1938 H           1 E12       0.0511
     48 H12         1.3060   62.7555   73.7504 H           1 E12       0.0913
     49 H13        -1.5780   62.1504   74.5906 H           1 E12       0.0333
     50 H14        -1.0185   63.3652   73.4281 H           1 E12       0.0333
     51 H15         0.6869   61.5115   70.0452 H           1 E12       0.0317
     52 H16         1.5618   62.2216   71.3774 H           1 E12       0.0317
     53 H17         4.3435   67.8963   60.1884 H           1 E12       0.2526
     54 H18         1.8120   69.2553   63.8315 H           1 E12       0.0600
     55 H19         0.7923   68.9768   61.7675 H           1 E12       0.0298
     56 H20         6.3483   68.8853   61.6126 H           1 E12       0.0511
     57 H21         6.0875   67.1359   61.5966 H           1 E12       0.0511
     58 H22         4.1304   70.1006   64.6836 H           1 E12       0.0913
     59 H23         6.3115   68.8019   65.5128 H           1 E12       0.0333
     60 H24         6.3215   69.9648   64.2006 H           1 E12       0.0333
     61 H25         7.5828   68.0429   63.4723 H           1 E12       0.0298
     62 H26         6.3047   66.9253   63.9389 H           1 E12       0.0298
     63 H27         4.0384   68.8991   66.5337 H           1 E12       0.2022
     64 H28         2.7285   68.5109   65.6258 H           1 E12       0.2022
     65 H29         2.9977   66.4301   65.9370 H           1 E12       0.0814
     66 H30         4.5916   66.4791   65.2085 H           1 E12       0.0814
     67 H31        -1.2626   63.2237   71.1310 H           1 E12       0.0267
     68 H32        -0.3624   63.4591   69.6738 H           1 E12       0.0267
     69 H33         0.9113   64.4275   72.2779 H           1 E12       0.0265
     70 H34        -0.4565   65.3030   71.6164 H           1 E12       0.0265
     71 H35         1.7017   66.2844   70.9187 H           1 E12       0.0265
     72 H36         0.6554   65.8310   69.5875 H           1 E12       0.0265
     73 H37         2.5821   65.0331   68.7373 H           1 E12       0.0265
     74 H38         2.1573   63.5746   69.6048 H           1 E12       0.0265
     75 H39         3.6760   64.1734   71.4517 H           1 E12       0.0265
     76 H40         4.0274   65.7431   70.7362 H           1 E12       0.0265
     77 H41         4.6612   63.2549   69.1074 H           1 E12       0.0265
     78 H42         5.6551   63.6185   70.5090 H           1 E12       0.0265
     79 H43         6.8839   64.5527   68.8231 H           1 E12       0.0265
     80 H44         6.0782   65.9495   69.4995 H           1 E12       0.0265
     81 H45         4.8511   64.5481   67.0641 H           1 E12       0.0267
     82 H46         6.2883   65.5192   66.8358 H           1 E12       0.0267
     83 H47         5.2379   67.5276   67.6429 H           1 E12       0.0317
     84 H48         3.7717   66.6869   68.1276 H           1 E12       0.0317
@<TRIPOS>BOND
     1     1     9   1
     2     1     3   2
     3     1     2  am
     4     2    15   1
     5    15    10   1
     6    15     4   2
     7     4    11   1
     8     4     5   1
     9     5     9   2
    10    11     7   1
    11    11    12   1
    12    12     6   1
    13     6    10   1
    14     7     8   1
    15     8    13   1
    16    13    28   1
    17    28    29   1
    18    29    30   1
    19    30    31   1
    20    31    32   1
    21    32    33   1
    22    33    34   1
    23    34    35   1
    24    35    36   1
    25    36    27   1
    26    27    26   1
    27    26    23   1
    28    23    24   1
    29    23    18   1
    30    18    19   1
    31    18    17   2
    32    17    22   1
    33    17    16   1
    34    16    14  am
    35    14    20   1
    36    14    21   2
    37    20    19   2
    38    22    25   1
    39    25    24   1
    40     2    37   1
    41     5    38   1
    42     6    39   1
    43     6    40   1
    44     7    41   1
    45     7    42   1
    46     8    43   1
    47     8    44   1
    48     9    45   1
    49    10    46   1
    50    10    47   1
    51    11    48   1
    52    12    49   1
    53    12    50   1
    54    13    51   1
    55    13    52   1
    56    16    53   1
    57    19    54   1
    58    20    55   1
    59    22    56   1
    60    22    57   1
    61    23    58   1
    62    24    59   1
    63    24    60   1
    64    25    61   1
    65    25    62   1
    66    26    63   1
    67    26    64   1
    68    27    65   1
    69    27    66   1
    70    28    67   1
    71    28    68   1
    72    29    69   1
    73    29    70   1
    74    30    71   1
    75    30    72   1
    76    31    73   1
    77    31    74   1
    78    32    75   1
    79    32    76   1
    80    33    77   1
    81    33    78   1
    82    34    79   1
    83    34    80   1
    84    35    81   1
    85    35    82   1
    86    36    83   1
    87    36    84   1
@<TRIPOS>SUBSTRUCTURE
     1  E12      1

