@<TRIPOS>MOLECULE
1h23_ligand_024
    84    87
SMALL
GAST_HUCK
****
This file was generated by PARSER (from files_GN.cpp)

@<TRIPOS>ATOM
      1 C1         -1.8369   68.9932   63.0594 C.2         1 E12       0.1811
      2 N2         -2.7102   68.6608   64.0075 N.am        1 E12      -0.2230
      3 O7         -2.2505   69.3388   61.9627 O.2         1 E12      -0.4310
      4 C4         -1.0181   68.4084   65.6111 C.2         1 E12       0.0225
      5 C5         -0.1099   68.6857   64.5995 C.2         1 E12      -0.0779
      6 C14        -2.9018   67.1638   67.4103 C.3         1 E12      -0.0310
      7 N17         0.4219   69.1341   67.4539 N.4         1 E12       0.2346
      8 C24         1.2103   68.8722   68.6841 C.3         1 E12      -0.0329
      9 C6         -0.5070   68.9945   63.3479 C.2         1 E12      -0.0278
     10 C9         -3.4043   67.9404   66.1717 C.3         1 E12       0.0189
     11 C10        -0.5354   68.0882   66.9718 C.3         1 E12      -0.0032
     12 C13        -1.6820   67.8882   68.0145 C.3         1 E12      -0.0041
     13 C63         2.5176   68.0564   68.4584 C.3         1 E12      -0.0126
     14 C29         3.0689   68.5182   59.9007 C.2         1 E12       0.1811
     15 C3         -2.3357   68.3413   65.2640 C.2         1 E12       0.0883
     16 N30         4.2082   68.9284   60.4524 N.am        1 E12      -0.2230
     17 C31         4.4633   68.8009   61.7717 C.2         1 E12       0.0883
     18 C32         3.5577   68.1729   62.5744 C.2         1 E12       0.0225
     19 C33         2.3507   67.7928   62.0037 C.2         1 E12      -0.0779
     20 C34         2.1038   67.9685   60.6896 C.2         1 E12      -0.0278
     21 O35         2.8863   68.7008   58.7068 O.2         1 E12      -0.4310
     22 C36         5.7315   69.3453   62.2347 C.3         1 E12       0.0189
     23 C37         3.7730   68.0277   64.0314 C.3         1 E12      -0.0032
     24 C38         5.2479   68.2445   64.4769 C.3         1 E12      -0.0041
     25 C39         5.8322   69.4885   63.7749 C.3         1 E12      -0.0310
     26 N40         3.2093   66.7917   64.6656 N.4         1 E12       0.2346
     27 C41         3.6790   65.4325   64.2714 C.3         1 E12      -0.0329
     28 C64         2.9693   67.3042   69.7400 C.3         1 E12      -0.0483
     29 C65         2.0537   66.0933   70.1080 C.3         1 E12      -0.0529
     30 C66         2.6957   64.7105   69.8216 C.3         1 E12      -0.0531
     31 C67         4.0457   64.4896   70.5657 C.3         1 E12      -0.0531
     32 C68         5.2113   63.9421   69.6957 C.3         1 E12      -0.0531
     33 C69         6.0841   64.9946   68.9342 C.3         1 E12      -0.0531
     34 C70         5.7021   65.5798   67.5352 C.3         1 E12      -0.0529
     35 C71         4.5706   64.9038   66.6883 C.3         1 E12      -0.0483
     36 C72         4.8430   64.8770   65.1383 C.3         1 E12      -0.0126
     37 H1         -3.6541   68.6482   63.7943 H           1 E12       0.2526
     38 H2          0.8677   68.6719   64.7852 H           1 E12       0.0600
     39 H3         -3.6968   67.0937   68.1586 H           1 E12       0.0298
     40 H4         -2.6149   66.1483   67.1188 H           1 E12       0.0298
     41 H5         -0.1138   69.9902   67.6134 H           1 E12       0.2022
     42 H6          1.0982   69.3252   66.7176 H           1 E12       0.2022
     43 H7          0.5821   68.3890   69.4320 H           1 E12       0.0814
     44 H8          1.4968   69.8413   69.1035 H           1 E12       0.0814
     45 H9          0.1622   69.2170   62.6487 H           1 E12       0.0298
     46 H10        -4.1163   67.2997   65.6447 H           1 E12       0.0511
     47 H11        -3.9408   68.8367   66.4925 H           1 E12       0.0511
     48 H12        -0.0025   67.1370   66.8838 H           1 E12       0.0913
     49 H13        -2.0126   68.8610   68.3918 H           1 E12       0.0333
     50 H14        -1.3224   67.2963   68.8590 H           1 E12       0.0333
     51 H15         3.3115   68.7461   68.1620 H           1 E12       0.0317
     52 H16         2.3997   67.3345   67.6471 H           1 E12       0.0317
     53 H17         4.8741   69.3538   59.8900 H           1 E12       0.2526
     54 H18         1.6326   67.4062   62.5673 H           1 E12       0.0600
     55 H19         1.2164   67.7310   60.3136 H           1 E12       0.0298
     56 H20         5.8838   70.3355   61.7976 H           1 E12       0.0511
     57 H21         6.5275   68.6908   61.8747 H           1 E12       0.0511
     58 H22         3.1922   68.8458   64.4816 H           1 E12       0.0913
     59 H23         5.8448   67.3746   64.1987 H           1 E12       0.0333
     60 H24         5.2846   68.3794   65.5595 H           1 E12       0.0333
     61 H25         5.2635   70.3763   64.0913 H           1 E12       0.0298
     62 H26         6.8805   69.6203   64.0638 H           1 E12       0.0298
     63 H27         3.3517   66.8884   65.6739 H           1 E12       0.2022
     64 H28         2.1954   66.8099   64.5087 H           1 E12       0.2022
     65 H29         2.8196   64.7539   64.3771 H           1 E12       0.0814
     66 H30         3.9728   65.4064   63.2165 H           1 E12       0.0814
     67 H31         2.9857   67.9988   70.5769 H           1 E12       0.0267
     68 H32         3.9958   66.9705   69.6018 H           1 E12       0.0267
     69 H33         1.1080   66.1513   69.5520 H           1 E12       0.0265
     70 H34         1.7872   66.1310   71.1751 H           1 E12       0.0265
     71 H35         2.8118   64.6030   68.7473 H           1 E12       0.0265
     72 H36         1.9862   63.9366   70.1326 H           1 E12       0.0265
     73 H37         3.8570   63.7802   71.3802 H           1 E12       0.0265
     74 H38         4.3869   65.4083   71.0542 H           1 E12       0.0265
     75 H39         4.8387   63.1670   69.0158 H           1 E12       0.0265
     76 H40         5.8932   63.4326   70.3895 H           1 E12       0.0265
     77 H41         7.0718   64.5350   68.8130 H           1 E12       0.0265
     78 H42         6.2498   65.8438   69.6106 H           1 E12       0.0265
     79 H43         6.6299   65.5726   66.9564 H           1 E12       0.0265
     80 H44         5.4405   66.6318   67.6526 H           1 E12       0.0265
     81 H45         3.6300   65.4425   66.8888 H           1 E12       0.0267
     82 H46         4.4164   63.8667   67.0330 H           1 E12       0.0267
     83 H47         5.0014   63.8324   64.8421 H           1 E12       0.0317
     84 H48         5.7494   65.4403   64.8760 H           1 E12       0.0317
@<TRIPOS>BOND
     1     1     9   1
     2     1     3   2
     3     1     2  am
     4     2    15   1
     5    15    10   1
     6    15     4   2
     7     4    11   1
     8     4     5   1
     9     5     9   2
    10    11     7   1
    11    11    12   1
    12    12     6   1
    13     6    10   1
    14     7     8   1
    15     8    13   1
    16    13    28   1
    17    28    29   1
    18    29    30   1
    19    30    31   1
    20    31    32   1
    21    32    33   1
    22    33    34   1
    23    34    35   1
    24    35    36   1
    25    36    27   1
    26    27    26   1
    27    26    23   1
    28    23    24   1
    29    23    18   1
    30    18    19   1
    31    18    17   2
    32    17    22   1
    33    17    16   1
    34    16    14  am
    35    14    20   1
    36    14    21   2
    37    20    19   2
    38    22    25   1
    39    25    24   1
    40     2    37   1
    41     5    38   1
    42     6    39   1
    43     6    40   1
    44     7    41   1
    45     7    42   1
    46     8    43   1
    47     8    44   1
    48     9    45   1
    49    10    46   1
    50    10    47   1
    51    11    48   1
    52    12    49   1
    53    12    50   1
    54    13    51   1
    55    13    52   1
    56    16    53   1
    57    19    54   1
    58    20    55   1
    59    22    56   1
    60    22    57   1
    61    23    58   1
    62    24    59   1
    63    24    60   1
    64    25    61   1
    65    25    62   1
    66    26    63   1
    67    26    64   1
    68    27    65   1
    69    27    66   1
    70    28    67   1
    71    28    68   1
    72    29    69   1
    73    29    70   1
    74    30    71   1
    75    30    72   1
    76    31    73   1
    77    31    74   1
    78    32    75   1
    79    32    76   1
    80    33    77   1
    81    33    78   1
    82    34    79   1
    83    34    80   1
    84    35    81   1
    85    35    82   1
    86    36    83   1
    87    36    84   1
@<TRIPOS>SUBSTRUCTURE
     1  E12      1

