@<TRIPOS>MOLECULE
1h23_ligand_013
    84    87
SMALL
GAST_HUCK
****
This file was generated by PARSER (from files_GN.cpp)

@<TRIPOS>ATOM
      1 C1          2.3939   68.9835   65.8849 C.2         1 E12       0.1811
      2 N2          1.7303   68.8712   64.7359 N.am        1 E12      -0.2230
      3 O7          1.7728   68.9338   66.9391 O.2         1 E12      -0.4310
      4 C4          3.7125   69.0163   63.4862 C.2         1 E12       0.0225
      5 C5          4.3835   69.1915   64.6821 C.2         1 E12      -0.0779
      6 C14         2.2405   68.2480   61.1056 C.3         1 E12      -0.0310
      7 N17         5.4514   67.7506   62.2469 N.4         1 E12       0.2346
      8 C24         5.0351   66.3425   62.4791 C.3         1 E12      -0.0329
      9 C6          3.7444   69.1400   65.8706 C.2         1 E12      -0.0278
     10 C9          1.5103   68.8220   62.3437 C.3         1 E12       0.0189
     11 C10         4.4828   68.8890   62.2307 C.3         1 E12      -0.0032
     12 C13         3.6176   68.9291   60.9305 C.3         1 E12      -0.0041
     13 C63         4.5846   65.9969   63.9226 C.3         1 E12      -0.0126
     14 C29        -0.4163   56.9547   73.5184 C.2         1 E12       0.1811
     15 C3          2.3514   68.9066   63.5340 C.2         1 E12       0.0883
     16 N30         0.6708   56.4131   72.9789 N.am        1 E12      -0.2230
     17 C31         1.5898   57.1428   72.3028 C.2         1 E12       0.0883
     18 C32         1.4076   58.4917   72.1610 C.2         1 E12       0.0225
     19 C33         0.2816   59.0512   72.7425 C.2         1 E12      -0.0779
     20 C34        -0.6343   58.2969   73.3968 C.2         1 E12      -0.0278
     21 O35        -1.2248   56.2298   74.0935 O.2         1 E12      -0.4310
     22 C36         2.6736   56.4029   71.6755 C.3         1 E12       0.0189
     23 C37         2.2526   59.3120   71.2689 C.3         1 E12      -0.0032
     24 C38         3.3107   58.5183   70.4226 C.3         1 E12      -0.0041
     25 C39         3.8508   57.2894   71.2035 C.3         1 E12      -0.0310
     26 N40         2.8025   60.5346   71.9171 N.4         1 E12       0.2346
     27 C41         4.1939   60.5756   72.4353 C.3         1 E12      -0.0329
     28 C64         4.1739   64.5138   64.1230 C.3         1 E12      -0.0483
     29 C65         3.2348   64.2746   65.3441 C.3         1 E12      -0.0529
     30 C66         3.9387   64.1880   66.7480 C.3         1 E12      -0.0531
     31 C67         3.3105   65.0542   67.8866 C.3         1 E12      -0.0531
     32 C68         3.0028   64.3122   69.2287 C.3         1 E12      -0.0531
     33 C69         3.9264   64.6840   70.4308 C.3         1 E12      -0.0531
     34 C70         5.2783   63.9181   70.5497 C.3         1 E12      -0.0529
     35 C71         5.1757   62.3982   70.8658 C.3         1 E12      -0.0483
     36 C72         4.7320   62.0281   72.3175 C.3         1 E12      -0.0126
     37 H1          0.7638   68.7749   64.7593 H           1 E12       0.2526
     38 H2          5.3710   69.3093   64.6877 H           1 E12       0.0600
     39 H3          2.3646   67.1710   61.2353 H           1 E12       0.0298
     40 H4          1.6280   68.4091   60.2116 H           1 E12       0.0298
     41 H5          6.1622   67.9733   62.9497 H           1 E12       0.2022
     42 H6          5.9245   67.7692   61.3360 H           1 E12       0.2022
     43 H7          5.9157   65.7437   62.2536 H           1 E12       0.0814
     44 H8          4.2666   66.0577   61.7573 H           1 E12       0.0814
     45 H9          4.2484   69.2588   66.7185 H           1 E12       0.0298
     46 H10         1.1578   69.8315   62.1172 H           1 E12       0.0511
     47 H11         0.6309   68.1979   62.5410 H           1 E12       0.0511
     48 H12         5.1113   69.7854   62.1758 H           1 E12       0.0913
     49 H13         4.1491   68.4581   60.1035 H           1 E12       0.0333
     50 H14         3.4368   69.9716   60.6501 H           1 E12       0.0333
     51 H15         3.7272   66.6194   64.1892 H           1 E12       0.0317
     52 H16         5.4056   66.2310   64.6100 H           1 E12       0.0317
     53 H17         0.8052   55.4513   73.0556 H           1 E12       0.2526
     54 H18         0.0887   60.0229   72.6294 H           1 E12       0.0600
     55 H19        -1.4578   58.7137   73.7680 H           1 E12       0.0298
     56 H20         2.2636   55.8652   70.8146 H           1 E12       0.0511
     57 H21         3.0599   55.6581   72.3782 H           1 E12       0.0511
     58 H22         1.5641   59.7257   70.5274 H           1 E12       0.0913
     59 H23         4.1489   59.1698   70.1442 H           1 E12       0.0333
     60 H24         2.8417   58.1620   69.4927 H           1 E12       0.0333
     61 H25         4.5153   56.7036   70.5660 H           1 E12       0.0298
     62 H26         4.4271   57.6005   72.0806 H           1 E12       0.0298
     63 H27         2.7126   61.2717   71.2123 H           1 E12       0.2022
     64 H28         2.1897   60.7959   72.6970 H           1 E12       0.2022
     65 H29         4.1862   60.2565   73.4884 H           1 E12       0.0814
     66 H30         4.8740   59.9213   71.8642 H           1 E12       0.0814
     67 H31         5.0743   63.9024   64.2456 H           1 E12       0.0267
     68 H32         3.6543   64.1731   63.2158 H           1 E12       0.0267
     69 H33         2.7023   63.3338   65.1718 H           1 E12       0.0265
     70 H34         2.4686   65.0563   65.3346 H           1 E12       0.0265
     71 H35         4.9907   64.4673   66.6391 H           1 E12       0.0265
     72 H36         3.9501   63.1384   67.0538 H           1 E12       0.0265
     73 H37         2.3833   65.5138   67.5316 H           1 E12       0.0265
     74 H38         3.9807   65.8926   68.0905 H           1 E12       0.0265
     75 H39         2.9920   63.2316   69.0714 H           1 E12       0.0265
     76 H40         1.9830   64.5783   69.5219 H           1 E12       0.0265
     77 H41         3.3567   64.5423   71.3492 H           1 E12       0.0265
     78 H42         4.1435   65.7546   70.3680 H           1 E12       0.0265
     79 H43         5.8623   64.3930   71.3461 H           1 E12       0.0265
     80 H44         5.8376   64.0538   69.6181 H           1 E12       0.0265
     81 H45         6.1670   61.9619   70.7020 H           1 E12       0.0267
     82 H46         4.5145   61.9429   70.1219 H           1 E12       0.0267
     83 H47         3.9476   62.7098   72.6728 H           1 E12       0.0317
     84 H48         5.6000   62.1366   72.9797 H           1 E12       0.0317
@<TRIPOS>BOND
     1     1     9   1
     2     1     3   2
     3     1     2  am
     4     2    15   1
     5    15    10   1
     6    15     4   2
     7     4    11   1
     8     4     5   1
     9     5     9   2
    10    11     7   1
    11    11    12   1
    12    12     6   1
    13     6    10   1
    14     7     8   1
    15     8    13   1
    16    13    28   1
    17    28    29   1
    18    29    30   1
    19    30    31   1
    20    31    32   1
    21    32    33   1
    22    33    34   1
    23    34    35   1
    24    35    36   1
    25    36    27   1
    26    27    26   1
    27    26    23   1
    28    23    24   1
    29    23    18   1
    30    18    19   1
    31    18    17   2
    32    17    22   1
    33    17    16   1
    34    16    14  am
    35    14    20   1
    36    14    21   2
    37    20    19   2
    38    22    25   1
    39    25    24   1
    40     2    37   1
    41     5    38   1
    42     6    39   1
    43     6    40   1
    44     7    41   1
    45     7    42   1
    46     8    43   1
    47     8    44   1
    48     9    45   1
    49    10    46   1
    50    10    47   1
    51    11    48   1
    52    12    49   1
    53    12    50   1
    54    13    51   1
    55    13    52   1
    56    16    53   1
    57    19    54   1
    58    20    55   1
    59    22    56   1
    60    22    57   1
    61    23    58   1
    62    24    59   1
    63    24    60   1
    64    25    61   1
    65    25    62   1
    66    26    63   1
    67    26    64   1
    68    27    65   1
    69    27    66   1
    70    28    67   1
    71    28    68   1
    72    29    69   1
    73    29    70   1
    74    30    71   1
    75    30    72   1
    76    31    73   1
    77    31    74   1
    78    32    75   1
    79    32    76   1
    80    33    77   1
    81    33    78   1
    82    34    79   1
    83    34    80   1
    84    35    81   1
    85    35    82   1
    86    36    83   1
    87    36    84   1
@<TRIPOS>SUBSTRUCTURE
     1  E12      1

