@<TRIPOS>MOLECULE
1h23_ligand_006
    84    87
SMALL
GAST_HUCK
****
This file was generated by PARSER (from files_GN.cpp)

@<TRIPOS>ATOM
      1 C1          2.4679   68.4368   60.7819 C.2         1 E12       0.1811
      2 N2          3.7828   68.2424   60.8541 N.am        1 E12      -0.2230
      3 O7          1.9318   68.4430   59.6828 O.2         1 E12      -0.4310
      4 C4          3.7748   68.4234   63.1965 C.2         1 E12       0.0225
      5 C5          2.4108   68.6689   63.1081 C.2         1 E12      -0.0779
      6 C14         6.6686   68.6458   63.1928 C.3         1 E12      -0.0310
      7 N17         3.7603   67.9491   65.6764 N.4         1 E12       0.2346
      8 C24         4.0449   66.5775   66.1834 C.3         1 E12      -0.0329
      9 C6          1.7639   68.6705   61.9225 C.2         1 E12      -0.0278
     10 C9          5.9093   68.2347   61.9136 C.3         1 E12       0.0189
     11 C10         4.4805   68.5264   64.4957 C.3         1 E12      -0.0032
     12 C13         5.9677   68.0573   64.4328 C.3         1 E12      -0.0041
     13 C63         5.2234   66.5543   67.2010 C.3         1 E12      -0.0126
     14 C29         2.3887   69.9134   69.0657 C.2         1 E12       0.1811
     15 C3          4.4569   68.2883   62.0222 C.2         1 E12       0.0883
     16 N30         1.1695   70.2940   68.6905 N.am        1 E12      -0.2230
     17 C31         0.1771   69.4125   68.4205 C.2         1 E12       0.0883
     18 C32         0.4087   68.0750   68.5640 C.2         1 E12       0.0225
     19 C33         1.7146   67.6981   68.8247 C.2         1 E12      -0.0779
     20 C34         2.6820   68.5921   69.1260 C.2         1 E12      -0.0278
     21 O35         3.2420   70.7630   69.2780 O.2         1 E12      -0.4310
     22 C36        -1.0751   69.9425   67.9036 C.3         1 E12       0.0189
     23 C37        -0.6230   67.0406   68.2969 C.3         1 E12      -0.0032
     24 C38        -1.9328   67.5962   67.6205 C.3         1 E12      -0.0041
     25 C39        -1.7352   68.9575   66.9078 C.3         1 E12      -0.0310
     26 N40        -1.0878   66.2081   69.4604 N.4         1 E12       0.2346
     27 C41        -0.2561   65.8925   70.6531 C.3         1 E12      -0.0329
     28 C64         5.4049   65.2115   67.9772 C.3         1 E12      -0.0483
     29 C65         4.9335   65.2863   69.4579 C.3         1 E12      -0.0529
     30 C66         4.8683   63.9296   70.2186 C.3         1 E12      -0.0531
     31 C67         3.8088   62.9289   69.6612 C.3         1 E12      -0.0531
     32 C68         3.2972   61.8569   70.6686 C.3         1 E12      -0.0531
     33 C69         2.3605   62.3464   71.8245 C.3         1 E12      -0.0531
     34 C70         0.8153   62.3292   71.5865 C.3         1 E12      -0.0529
     35 C71         0.2213   63.2838   70.5094 C.3         1 E12      -0.0483
     36 C72         0.7835   64.7446   70.5238 C.3         1 E12      -0.0126
     37 H1          4.2908   68.1024   60.0380 H           1 E12       0.2526
     38 H2          1.8862   68.8939   63.9215 H           1 E12       0.0600
     39 H3          7.6907   68.2714   63.1362 H           1 E12       0.0298
     40 H4          6.7032   69.7375   63.2765 H           1 E12       0.0298
     41 H5          2.7599   67.9826   65.4709 H           1 E12       0.2022
     42 H6          3.9097   68.5918   66.4589 H           1 E12       0.2022
     43 H7          4.2367   65.8877   65.3556 H           1 E12       0.0814
     44 H8          3.1430   66.2333   66.6948 H           1 E12       0.0814
     45 H9          0.7887   68.8737   61.8849 H           1 E12       0.0298
     46 H10         6.2379   68.9112   61.1207 H           1 E12       0.0511
     47 H11         6.1996   67.2205   61.6297 H           1 E12       0.0511
     48 H12         4.5070   69.6008   64.7099 H           1 E12       0.0913
     49 H13         6.0233   66.9712   64.3523 H           1 E12       0.0333
     50 H14         6.5014   68.3613   65.3361 H           1 E12       0.0333
     51 H15         5.0848   67.3701   67.9177 H           1 E12       0.0317
     52 H16         6.1527   66.7703   66.6668 H           1 E12       0.0317
     53 H17         0.9936   71.2411   68.5986 H           1 E12       0.2526
     54 H18         1.9731   66.7494   68.7332 H           1 E12       0.0600
     55 H19         3.6069   68.2789   69.3235 H           1 E12       0.0298
     56 H20        -0.9118   70.8918   67.3796 H           1 E12       0.0511
     57 H21        -1.7513   70.1371   68.7439 H           1 E12       0.0511
     58 H22        -0.1772   66.3540   67.5676 H           1 E12       0.0913
     59 H23        -2.7136   67.7540   68.3750 H           1 E12       0.0333
     60 H24        -2.3211   66.8608   66.9073 H           1 E12       0.0333
     61 H25        -1.1010   68.8255   66.0239 H           1 E12       0.0298
     62 H26        -2.7054   69.3473   66.5827 H           1 E12       0.0298
     63 H27        -1.8936   66.7077   69.8463 H           1 E12       0.2022
     64 H28        -1.4517   65.3245   69.0928 H           1 E12       0.2022
     65 H29         0.2564   66.7950   70.9908 H           1 E12       0.0814
     66 H30        -0.9521   65.6238   71.4530 H           1 E12       0.0814
     67 H31         6.4699   64.9580   67.9887 H           1 E12       0.0267
     68 H32         4.8745   64.4076   67.4571 H           1 E12       0.0267
     69 H33         3.9456   65.7499   69.4982 H           1 E12       0.0265
     70 H34         5.6239   65.9413   70.0036 H           1 E12       0.0265
     71 H35         4.6346   64.1678   71.2582 H           1 E12       0.0265
     72 H36         5.8581   63.4616   70.2081 H           1 E12       0.0265
     73 H37         4.2621   62.3981   68.8175 H           1 E12       0.0265
     74 H38         2.9497   63.4725   69.2626 H           1 E12       0.0265
     75 H39         4.1807   61.3925   71.1189 H           1 E12       0.0265
     76 H40         2.7709   61.0734   70.1109 H           1 E12       0.0265
     77 H41         2.6538   63.3442   72.1607 H           1 E12       0.0265
     78 H42         2.5347   61.6665   72.6705 H           1 E12       0.0265
     79 H43         0.3286   62.5713   72.5401 H           1 E12       0.0265
     80 H44         0.5180   61.3057   71.3287 H           1 E12       0.0265
     81 H45        -0.8685   63.3038   70.6393 H           1 E12       0.0267
     82 H46         0.4072   62.8350   69.5234 H           1 E12       0.0267
     83 H47         1.3494   64.9024   69.6077 H           1 E12       0.0317
     84 H48         1.4774   64.8589   71.3655 H           1 E12       0.0317
@<TRIPOS>BOND
     1     1     9   1
     2     1     3   2
     3     1     2  am
     4     2    15   1
     5    15    10   1
     6    15     4   2
     7     4    11   1
     8     4     5   1
     9     5     9   2
    10    11     7   1
    11    11    12   1
    12    12     6   1
    13     6    10   1
    14     7     8   1
    15     8    13   1
    16    13    28   1
    17    28    29   1
    18    29    30   1
    19    30    31   1
    20    31    32   1
    21    32    33   1
    22    33    34   1
    23    34    35   1
    24    35    36   1
    25    36    27   1
    26    27    26   1
    27    26    23   1
    28    23    24   1
    29    23    18   1
    30    18    19   1
    31    18    17   2
    32    17    22   1
    33    17    16   1
    34    16    14  am
    35    14    20   1
    36    14    21   2
    37    20    19   2
    38    22    25   1
    39    25    24   1
    40     2    37   1
    41     5    38   1
    42     6    39   1
    43     6    40   1
    44     7    41   1
    45     7    42   1
    46     8    43   1
    47     8    44   1
    48     9    45   1
    49    10    46   1
    50    10    47   1
    51    11    48   1
    52    12    49   1
    53    12    50   1
    54    13    51   1
    55    13    52   1
    56    16    53   1
    57    19    54   1
    58    20    55   1
    59    22    56   1
    60    22    57   1
    61    23    58   1
    62    24    59   1
    63    24    60   1
    64    25    61   1
    65    25    62   1
    66    26    63   1
    67    26    64   1
    68    27    65   1
    69    27    66   1
    70    28    67   1
    71    28    68   1
    72    29    69   1
    73    29    70   1
    74    30    71   1
    75    30    72   1
    76    31    73   1
    77    31    74   1
    78    32    75   1
    79    32    76   1
    80    33    77   1
    81    33    78   1
    82    34    79   1
    83    34    80   1
    84    35    81   1
    85    35    82   1
    86    36    83   1
    87    36    84   1
@<TRIPOS>SUBSTRUCTURE
     1  E12      1

