@<TRIPOS>MOLECULE
1h23_ligand_004
    84    87
SMALL
GAST_HUCK
****
This file was generated by PARSER (from files_GN.cpp)

@<TRIPOS>ATOM
      1 C1          3.8909   57.5813   70.9047 C.2         1 E12       0.1811
      2 N2          3.8685   57.8886   72.1982 N.am        1 E12      -0.2230
      3 O7          4.4710   56.5663   70.5442 O.2         1 E12      -0.4310
      4 C4          2.5585   59.8010   71.8178 C.2         1 E12       0.0225
      5 C5          2.6189   59.4971   70.4685 C.2         1 E12      -0.0779
      6 C14         3.1613   60.7458   74.4663 C.3         1 E12      -0.0310
      7 N17         0.4203   60.9831   71.7869 N.4         1 E12       0.2346
      8 C24        -0.3448   62.2584   71.8185 C.3         1 E12      -0.0329
      9 C6          3.2651   58.4040   70.0115 C.2         1 E12      -0.0278
     10 C9          3.3827   59.2605   74.1010 C.3         1 E12       0.0189
     11 C10         1.8420   61.0153   72.2639 C.3         1 E12      -0.0032
     12 C13         1.8572   61.2500   73.8104 C.3         1 E12      -0.0041
     13 C63        -0.1055   63.1606   70.5647 C.3         1 E12      -0.0126
     14 C29         2.7283   69.1225   66.0777 C.2         1 E12       0.1811
     15 C3          3.2545   58.9944   72.6738 C.2         1 E12       0.0883
     16 N30         1.8037   68.6695   65.2305 N.am        1 E12      -0.2230
     17 C31         2.0254   68.5840   63.8963 C.2         1 E12       0.0883
     18 C32         3.2626   68.8835   63.4036 C.2         1 E12       0.0225
     19 C33         4.1584   69.4911   64.2669 C.2         1 E12      -0.0779
     20 C34         3.9371   69.5348   65.5973 C.2         1 E12      -0.0278
     21 O35         2.4707   69.1821   67.2748 O.2         1 E12      -0.4310
     22 C36         0.8985   68.2238   63.0450 C.3         1 E12       0.0189
     23 C37         3.6263   68.6553   61.9793 C.3         1 E12      -0.0032
     24 C38         2.4224   68.3222   61.0349 C.3         1 E12      -0.0041
     25 C39         1.0477   68.7574   61.6000 C.3         1 E12      -0.0310
     26 N40         4.6268   67.5603   61.7550 N.4         1 E12       0.2346
     27 C41         5.7827   67.3671   62.6682 C.3         1 E12      -0.0329
     28 C64         0.1750   64.6669   70.8809 C.3         1 E12      -0.0483
     29 C65         1.6717   65.0979   70.7544 C.3         1 E12      -0.0529
     30 C66         2.2457   64.9841   69.3097 C.3         1 E12      -0.0531
     31 C67         3.7137   65.4635   69.1951 C.3         1 E12      -0.0531
     32 C68         4.2640   65.4321   67.7400 C.3         1 E12      -0.0531
     33 C69         5.6453   66.1338   67.6427 C.3         1 E12      -0.0531
     34 C70         6.4145   65.9740   66.3026 C.3         1 E12      -0.0529
     35 C71         6.1540   67.0578   65.2088 C.3         1 E12      -0.0483
     36 C72         5.4160   66.5421   63.9366 C.3         1 E12      -0.0126
     37 H1          4.3304   57.2992   72.8165 H           1 E12       0.2526
     38 H2          2.1946   60.0998   69.8012 H           1 E12       0.0600
     39 H3          3.0976   60.8536   75.5521 H           1 E12       0.0298
     40 H4          4.0032   61.3488   74.1108 H           1 E12       0.0298
     41 H5         -0.0825   60.2946   72.3544 H           1 E12       0.2022
     42 H6          0.4022   60.6483   70.8215 H           1 E12       0.2022
     43 H7         -0.1304   62.8062   72.7431 H           1 E12       0.0814
     44 H8         -1.4063   61.9967   71.8558 H           1 E12       0.0814
     45 H9          3.2988   58.2164   69.0361 H           1 E12       0.0298
     46 H10         4.3828   58.9798   74.4445 H           1 E12       0.0511
     47 H11         2.6604   58.6388   74.6337 H           1 E12       0.0511
     48 H12         2.3527   61.8615   71.7936 H           1 E12       0.0913
     49 H13         1.0184   60.7248   74.2797 H           1 E12       0.0333
     50 H14         1.7466   62.3152   74.0319 H           1 E12       0.0333
     51 H15        -1.0000   63.1025   69.9324 H           1 E12       0.0317
     52 H16         0.7152   62.7515   69.9703 H           1 E12       0.0317
     53 H17         0.9348   68.4132   65.5858 H           1 E12       0.2526
     54 H18         4.9660   69.9572   63.9041 H           1 E12       0.0600
     55 H19         4.5879   69.9902   66.2004 H           1 E12       0.0298
     56 H20        -0.0267   68.6402   63.4592 H           1 E12       0.0511
     57 H21         0.7941   67.1370   63.0271 H           1 E12       0.0511
     58 H22         4.0706   69.5922   61.5959 H           1 E12       0.0913
     59 H23         2.3553   67.2444   60.8610 H           1 E12       0.0333
     60 H24         2.5716   68.7834   60.0507 H           1 E12       0.0333
     61 H25         0.9820   69.8487   61.5989 H           1 E12       0.0298
     62 H26         0.2424   68.3638   60.9705 H           1 E12       0.0298
     63 H27         4.1286   66.6696   61.7022 H           1 E12       0.2022
     64 H28         5.0386   67.7325   60.8240 H           1 E12       0.2022
     65 H29         6.5295   66.8013   62.1028 H           1 E12       0.0814
     66 H30         6.2372   68.3309   62.9156 H           1 E12       0.0814
     67 H31        -0.1753   64.8937   71.8943 H           1 E12       0.0267
     68 H32        -0.4227   65.2885   70.2073 H           1 E12       0.0267
     69 H33         2.2696   64.5052   71.4524 H           1 E12       0.0265
     70 H34         1.7404   66.1428   71.0649 H           1 E12       0.0265
     71 H35         1.6333   65.5887   68.6390 H           1 E12       0.0265
     72 H36         2.1940   63.9418   68.9879 H           1 E12       0.0265
     73 H37         4.3376   64.8232   69.8243 H           1 E12       0.0265
     74 H38         3.7829   66.4828   69.5830 H           1 E12       0.0265
     75 H39         3.5579   65.9329   67.0721 H           1 E12       0.0265
     76 H40         4.3614   64.3915   67.4177 H           1 E12       0.0265
     77 H41         6.2849   65.7189   68.4348 H           1 E12       0.0265
     78 H42         5.5023   67.1939   67.8498 H           1 E12       0.0265
     79 H43         6.2470   64.9663   65.9046 H           1 E12       0.0265
     80 H44         7.4827   66.0267   66.5561 H           1 E12       0.0265
     81 H45         7.1377   67.4448   64.8956 H           1 E12       0.0267
     82 H46         5.5799   67.9045   65.6350 H           1 E12       0.0267
     83 H47         4.3374   66.5744   64.1288 H           1 E12       0.0317
     84 H48         5.6727   65.4914   63.7523 H           1 E12       0.0317
@<TRIPOS>BOND
     1     1     9   1
     2     1     3   2
     3     1     2  am
     4     2    15   1
     5    15    10   1
     6    15     4   2
     7     4    11   1
     8     4     5   1
     9     5     9   2
    10    11     7   1
    11    11    12   1
    12    12     6   1
    13     6    10   1
    14     7     8   1
    15     8    13   1
    16    13    28   1
    17    28    29   1
    18    29    30   1
    19    30    31   1
    20    31    32   1
    21    32    33   1
    22    33    34   1
    23    34    35   1
    24    35    36   1
    25    36    27   1
    26    27    26   1
    27    26    23   1
    28    23    24   1
    29    23    18   1
    30    18    19   1
    31    18    17   2
    32    17    22   1
    33    17    16   1
    34    16    14  am
    35    14    20   1
    36    14    21   2
    37    20    19   2
    38    22    25   1
    39    25    24   1
    40     2    37   1
    41     5    38   1
    42     6    39   1
    43     6    40   1
    44     7    41   1
    45     7    42   1
    46     8    43   1
    47     8    44   1
    48     9    45   1
    49    10    46   1
    50    10    47   1
    51    11    48   1
    52    12    49   1
    53    12    50   1
    54    13    51   1
    55    13    52   1
    56    16    53   1
    57    19    54   1
    58    20    55   1
    59    22    56   1
    60    22    57   1
    61    23    58   1
    62    24    59   1
    63    24    60   1
    64    25    61   1
    65    25    62   1
    66    26    63   1
    67    26    64   1
    68    27    65   1
    69    27    66   1
    70    28    67   1
    71    28    68   1
    72    29    69   1
    73    29    70   1
    74    30    71   1
    75    30    72   1
    76    31    73   1
    77    31    74   1
    78    32    75   1
    79    32    76   1
    80    33    77   1
    81    33    78   1
    82    34    79   1
    83    34    80   1
    84    35    81   1
    85    35    82   1
    86    36    83   1
    87    36    84   1
@<TRIPOS>SUBSTRUCTURE
     1  E12      1

