@<TRIPOS>MOLECULE
1h23_ligand_072
    84    87
SMALL
GAST_HUCK
****
This file was generated by PARSER (from files_GN.cpp)

@<TRIPOS>ATOM
      1 C1          4.5847   59.2986   72.5474 C.2         1 E12       0.1811
      2 N2          4.4631   58.2253   73.3217 N.am        1 E12      -0.2230
      3 O7          5.1365   59.1941   71.4608 O.2         1 E12      -0.4310
      4 C4          3.3372   59.4349   74.9809 C.2         1 E12       0.0225
      5 C5          3.5065   60.5610   74.1946 C.2         1 E12      -0.0779
      6 C14         3.7297   57.3035   76.8709 C.3         1 E12      -0.0310
      7 N17         1.2650   60.1653   76.1546 N.4         1 E12       0.2346
      8 C24         0.3040   59.6575   75.1421 C.3         1 E12      -0.0329
      9 C6          4.1146   60.5020   72.9933 C.2         1 E12      -0.0278
     10 C9          3.9527   57.0557   75.3573 C.3         1 E12       0.0189
     11 C10         2.6134   59.5270   76.2645 C.3         1 E12      -0.0032
     12 C13         2.4865   58.1956   77.0702 C.3         1 E12      -0.0041
     13 C63        -1.1033   60.2675   75.3847 C.3         1 E12      -0.0126
     14 C29         1.0421   69.0613   63.5420 C.2         1 E12       0.1811
     15 C3          3.9020   58.2685   74.5519 C.2         1 E12       0.0883
     16 N30        -0.0510   69.1015   64.2953 N.am        1 E12      -0.2230
     17 C31        -0.1107   68.5491   65.5246 C.2         1 E12       0.0883
     18 C32         1.0093   67.9933   66.0747 C.2         1 E12       0.0225
     19 C33         2.1164   67.8711   65.2486 C.2         1 E12      -0.0779
     20 C34         2.1473   68.4120   64.0109 C.2         1 E12      -0.0278
     21 O35         1.0351   69.6023   62.4531 O.2         1 E12      -0.4310
     22 C36        -1.3964   68.6348   66.2058 C.3         1 E12       0.0189
     23 C37         1.0672   67.5260   67.4874 C.3         1 E12      -0.0032
     24 C38        -0.2033   67.9376   68.3067 C.3         1 E12      -0.0041
     25 C39        -1.4941   67.7611   67.4787 C.3         1 E12      -0.0310
     26 N40         2.3191   68.0085   68.1471 N.4         1 E12       0.2346
     27 C41         2.5639   67.8604   69.6056 C.3         1 E12      -0.0329
     28 C64        -2.0862   60.1552   74.1812 C.3         1 E12      -0.0483
     29 C65        -2.1343   61.3909   73.2424 C.3         1 E12      -0.0529
     30 C66        -0.9190   61.5515   72.2885 C.3         1 E12      -0.0531
     31 C67        -1.1163   62.7222   71.2935 C.3         1 E12      -0.0531
     32 C68        -0.0389   62.8263   70.1776 C.3         1 E12      -0.0531
     33 C69         1.4381   63.0499   70.6180 C.3         1 E12      -0.0531
     34 C70         1.7567   64.3515   71.4120 C.3         1 E12      -0.0529
     35 C71         1.5294   65.6882   70.6325 C.3         1 E12      -0.0483
     36 C72         2.8109   66.4205   70.1476 C.3         1 E12      -0.0126
     37 H1          4.8140   57.3777   73.0038 H           1 E12       0.2526
     38 H2          3.1795   61.4459   74.5149 H           1 E12       0.0600
     39 H3          3.5933   56.3520   77.3892 H           1 E12       0.0298
     40 H4          4.6046   57.8023   77.2963 H           1 E12       0.0298
     41 H5          1.4097   61.1593   75.9524 H           1 E12       0.2022
     42 H6          0.8171   60.1028   77.0736 H           1 E12       0.2022
     43 H7          0.2249   58.5689   75.1845 H           1 E12       0.0814
     44 H8          0.6587   59.9277   74.1483 H           1 E12       0.0814
     45 H9          4.2296   61.3244   72.4468 H           1 E12       0.0298
     46 H10         4.9319   56.5817   75.2460 H           1 E12       0.0511
     47 H11         3.1987   56.3590   74.9831 H           1 E12       0.0511
     48 H12         3.2040   60.2041   76.8887 H           1 E12       0.0913
     49 H13         1.6090   57.6288   76.7508 H           1 E12       0.0333
     50 H14         2.3634   58.4178   78.1343 H           1 E12       0.0333
     51 H15        -1.0020   61.3161   75.6772 H           1 E12       0.0317
     52 H16        -1.5358   59.7398   76.2409 H           1 E12       0.0317
     53 H17        -0.8280   69.5836   63.9729 H           1 E12       0.2526
     54 H18         2.9193   67.3714   65.5534 H           1 E12       0.0600
     55 H19         2.9557   68.3248   63.4409 H           1 E12       0.0298
     56 H20        -2.1947   68.3264   65.5226 H           1 E12       0.0511
     57 H21        -1.5742   69.6817   66.4749 H           1 E12       0.0511
     58 H22         1.1069   66.4323   67.4586 H           1 E12       0.0913
     59 H23        -0.1241   68.9873   68.6057 H           1 E12       0.0333
     60 H24        -0.2999   67.3480   69.2192 H           1 E12       0.0333
     61 H25        -1.6128   66.7080   67.1982 H           1 E12       0.0298
     62 H26        -2.3696   68.0602   68.0680 H           1 E12       0.0298
     63 H27         3.1019   67.5456   67.6846 H           1 E12       0.2022
     64 H28         2.3910   69.0053   67.9420 H           1 E12       0.2022
     65 H29         3.4712   68.4351   69.8005 H           1 E12       0.0814
     66 H30         1.7734   68.3518   70.1679 H           1 E12       0.0814
     67 H31        -3.0929   60.0302   74.5914 H           1 E12       0.0267
     68 H32        -1.8723   59.2544   73.6005 H           1 E12       0.0267
     69 H33        -2.2372   62.2948   73.8452 H           1 E12       0.0265
     70 H34        -3.0389   61.3060   72.6367 H           1 E12       0.0265
     71 H35        -0.7743   60.6225   71.7321 H           1 E12       0.0265
     72 H36        -0.0234   61.7464   72.8781 H           1 E12       0.0265
     73 H37        -1.1511   63.6656   71.8406 H           1 E12       0.0265
     74 H38        -2.0809   62.6004   70.7921 H           1 E12       0.0265
     75 H39        -0.3304   63.6277   69.4999 H           1 E12       0.0265
     76 H40        -0.0625   61.9087   69.5918 H           1 E12       0.0265
     77 H41         2.0703   63.0412   69.7253 H           1 E12       0.0265
     78 H42         1.7383   62.1968   71.2361 H           1 E12       0.0265
     79 H43         2.8013   64.2941   71.7438 H           1 E12       0.0265
     80 H44         1.1495   64.3575   72.3246 H           1 E12       0.0265
     81 H45         0.9708   66.3600   71.2845 H           1 E12       0.0267
     82 H46         0.9041   65.4908   69.7696 H           1 E12       0.0267
     83 H47         3.3083   65.8211   69.3821 H           1 E12       0.0317
     84 H48         3.4986   66.4918   70.9946 H           1 E12       0.0317
@<TRIPOS>BOND
     1     1     9   1
     2     1     3   2
     3     1     2  am
     4     2    15   1
     5    15    10   1
     6    15     4   2
     7     4    11   1
     8     4     5   1
     9     5     9   2
    10    11     7   1
    11    11    12   1
    12    12     6   1
    13     6    10   1
    14     7     8   1
    15     8    13   1
    16    13    28   1
    17    28    29   1
    18    29    30   1
    19    30    31   1
    20    31    32   1
    21    32    33   1
    22    33    34   1
    23    34    35   1
    24    35    36   1
    25    36    27   1
    26    27    26   1
    27    26    23   1
    28    23    24   1
    29    23    18   1
    30    18    19   1
    31    18    17   2
    32    17    22   1
    33    17    16   1
    34    16    14  am
    35    14    20   1
    36    14    21   2
    37    20    19   2
    38    22    25   1
    39    25    24   1
    40     2    37   1
    41     5    38   1
    42     6    39   1
    43     6    40   1
    44     7    41   1
    45     7    42   1
    46     8    43   1
    47     8    44   1
    48     9    45   1
    49    10    46   1
    50    10    47   1
    51    11    48   1
    52    12    49   1
    53    12    50   1
    54    13    51   1
    55    13    52   1
    56    16    53   1
    57    19    54   1
    58    20    55   1
    59    22    56   1
    60    22    57   1
    61    23    58   1
    62    24    59   1
    63    24    60   1
    64    25    61   1
    65    25    62   1
    66    26    63   1
    67    26    64   1
    68    27    65   1
    69    27    66   1
    70    28    67   1
    71    28    68   1
    72    29    69   1
    73    29    70   1
    74    30    71   1
    75    30    72   1
    76    31    73   1
    77    31    74   1
    78    32    75   1
    79    32    76   1
    80    33    77   1
    81    33    78   1
    82    34    79   1
    83    34    80   1
    84    35    81   1
    85    35    82   1
    86    36    83   1
    87    36    84   1
@<TRIPOS>SUBSTRUCTURE
     1  E12      1

