@<TRIPOS>MOLECULE
1h23_ligand_037
    84    87
SMALL
GAST_HUCK
****
This file was generated by PARSER (from files_GN.cpp)

@<TRIPOS>ATOM
      1 C1          2.5818   68.5000   60.7258 C.2         1 E12       0.1811
      2 N2          3.8828   68.2429   60.8679 N.am        1 E12      -0.2230
      3 O7          2.0429   68.3212   59.6401 O.2         1 E12      -0.4310
      4 C4          3.8381   68.8510   63.1316 C.2         1 E12       0.0225
      5 C5          2.4962   69.1714   62.9739 C.2         1 E12      -0.0779
      6 C14         6.6239   68.0389   63.4547 C.3         1 E12      -0.0310
      7 N17         3.9984   67.9851   65.4639 N.4         1 E12       0.2346
      8 C24         3.6525   66.5826   65.0846 C.3         1 E12      -0.0329
      9 C6          1.8737   68.9848   61.7915 C.2         1 E12      -0.0278
     10 C9          5.9556   68.0864   62.0595 C.3         1 E12       0.0189
     11 C10         4.4647   68.9906   64.4562 C.3         1 E12      -0.0032
     12 C13         6.0180   69.0981   64.3944 C.3         1 E12      -0.0041
     13 C63         2.1445   66.3000   64.7930 C.3         1 E12      -0.0126
     14 C29         3.9567   57.4416   70.9417 C.2         1 E12       0.1811
     15 C3          4.5289   68.3921   62.0489 C.2         1 E12       0.0883
     16 N30         3.8914   57.7019   72.2455 N.am        1 E12      -0.2230
     17 C31         3.3772   58.8559   72.7337 C.2         1 E12       0.0883
     18 C32         2.8451   59.7732   71.8761 C.2         1 E12       0.0225
     19 C33         2.9475   59.5052   70.5213 C.2         1 E12      -0.0779
     20 C34         3.4772   58.3575   70.0552 C.2         1 E12      -0.0278
     21 O35         4.4636   56.3927   70.5740 O.2         1 E12      -0.4310
     22 C36         3.4407   59.0322   74.1817 C.3         1 E12       0.0189
     23 C37         2.3006   61.0736   72.3484 C.3         1 E12      -0.0032
     24 C38         2.0920   61.1446   73.8917 C.3         1 E12      -0.0041
     25 C39         3.2709   60.4992   74.6450 C.3         1 E12      -0.0310
     26 N40         0.9817   61.4534   71.7568 N.4         1 E12       0.2346
     27 C41         0.9358   62.2198   70.4838 C.3         1 E12      -0.0329
     28 C64         1.1583   66.6452   65.9598 C.3         1 E12      -0.0483
     29 C65         0.5650   68.0952   65.9180 C.3         1 E12      -0.0529
     30 C66        -0.9139   68.2651   66.3780 C.3         1 E12      -0.0531
     31 C67        -1.4429   67.2965   67.4797 C.3         1 E12      -0.0531
     32 C68        -0.5240   67.1773   68.7331 C.3         1 E12      -0.0531
     33 C69        -1.1951   66.2566   69.8018 C.3         1 E12      -0.0531
     34 C70        -0.2958   65.9763   71.0444 C.3         1 E12      -0.0529
     35 C71         0.6578   64.7535   70.9229 C.3         1 E12      -0.0483
     36 C72        -0.0476   63.4108   70.5730 C.3         1 E12      -0.0126
     37 H1          4.3892   67.9345   60.1016 H           1 E12       0.2526
     38 H2          1.9712   69.5398   63.7432 H           1 E12       0.0600
     39 H3          6.4934   67.0542   63.8988 H           1 E12       0.0298
     40 H4          7.6939   68.2086   63.3449 H           1 E12       0.0298
     41 H5          3.1805   68.3914   65.9083 H           1 E12       0.2022
     42 H6          4.7216   67.9291   66.1889 H           1 E12       0.2022
     43 H7          3.9674   65.9296   65.9130 H           1 E12       0.0814
     44 H8          4.2176   66.2632   64.2012 H           1 E12       0.0814
     45 H9          0.9100   69.2233   61.6932 H           1 E12       0.0298
     46 H10         6.4463   68.8584   61.4652 H           1 E12       0.0511
     47 H11         6.1213   67.1237   61.5718 H           1 E12       0.0511
     48 H12         4.1431   69.9498   64.8706 H           1 E12       0.0913
     49 H13         6.4541   68.9982   65.3915 H           1 E12       0.0333
     50 H14         6.2880   70.0918   64.0151 H           1 E12       0.0333
     51 H15         2.0532   65.2240   64.5867 H           1 E12       0.0317
     52 H16         1.8364   66.8233   63.8827 H           1 E12       0.0317
     53 H17         4.2589   57.0518   72.8642 H           1 E12       0.2526
     54 H18         2.6499   60.1715   69.8504 H           1 E12       0.0600
     55 H19         3.5360   58.1965   69.0776 H           1 E12       0.0298
     56 H20         4.4048   58.6762   74.5545 H           1 E12       0.0511
     57 H21         2.6600   58.4139   74.6331 H           1 E12       0.0511
     58 H22         3.0417   61.8415   72.0978 H           1 E12       0.0913
     59 H23         1.1730   60.6198   74.1727 H           1 E12       0.0333
     60 H24         1.9922   62.1874   74.2072 H           1 E12       0.0333
     61 H25         4.1848   61.0599   74.4330 H           1 E12       0.0298
     62 H26         3.0898   60.5279   75.7211 H           1 E12       0.0298
     63 H27         0.4209   60.6038   71.6400 H           1 E12       0.2022
     64 H28         0.5067   62.0315   72.4532 H           1 E12       0.2022
     65 H29         1.9231   62.5871   70.1830 H           1 E12       0.0814
     66 H30         0.5939   61.5413   69.6987 H           1 E12       0.0814
     67 H31         1.6727   66.4838   66.9225 H           1 E12       0.0267
     68 H32         0.3490   65.9014   65.9188 H           1 E12       0.0267
     69 H33         0.6275   68.4786   64.8931 H           1 E12       0.0265
     70 H34         1.1970   68.7343   66.5534 H           1 E12       0.0265
     71 H35        -1.5526   68.1540   65.4931 H           1 E12       0.0265
     72 H36        -1.0191   69.2952   66.7271 H           1 E12       0.0265
     73 H37        -1.5691   66.3036   67.0188 H           1 E12       0.0265
     74 H38        -2.4431   67.6562   67.7683 H           1 E12       0.0265
     75 H39        -0.3755   68.1813   69.1617 H           1 E12       0.0265
     76 H40         0.4445   66.7504   68.4222 H           1 E12       0.0265
     77 H41        -1.4614   65.3026   69.3333 H           1 E12       0.0265
     78 H42        -2.1294   66.7206   70.1538 H           1 E12       0.0265
     79 H43        -0.9415   65.8052   71.9143 H           1 E12       0.0265
     80 H44         0.3047   66.8668   71.2647 H           1 E12       0.0265
     81 H45         1.1775   64.6407   71.8786 H           1 E12       0.0267
     82 H46         1.4188   64.9619   70.1678 H           1 E12       0.0267
     83 H47        -0.5392   63.4994   69.6039 H           1 E12       0.0317
     84 H48        -0.8240   63.1913   71.3114 H           1 E12       0.0317
@<TRIPOS>BOND
     1     1     9   1
     2     1     3   2
     3     1     2  am
     4     2    15   1
     5    15    10   1
     6    15     4   2
     7     4    11   1
     8     4     5   1
     9     5     9   2
    10    11     7   1
    11    11    12   1
    12    12     6   1
    13     6    10   1
    14     7     8   1
    15     8    13   1
    16    13    28   1
    17    28    29   1
    18    29    30   1
    19    30    31   1
    20    31    32   1
    21    32    33   1
    22    33    34   1
    23    34    35   1
    24    35    36   1
    25    36    27   1
    26    27    26   1
    27    26    23   1
    28    23    24   1
    29    23    18   1
    30    18    19   1
    31    18    17   2
    32    17    22   1
    33    17    16   1
    34    16    14  am
    35    14    20   1
    36    14    21   2
    37    20    19   2
    38    22    25   1
    39    25    24   1
    40     2    37   1
    41     5    38   1
    42     6    39   1
    43     6    40   1
    44     7    41   1
    45     7    42   1
    46     8    43   1
    47     8    44   1
    48     9    45   1
    49    10    46   1
    50    10    47   1
    51    11    48   1
    52    12    49   1
    53    12    50   1
    54    13    51   1
    55    13    52   1
    56    16    53   1
    57    19    54   1
    58    20    55   1
    59    22    56   1
    60    22    57   1
    61    23    58   1
    62    24    59   1
    63    24    60   1
    64    25    61   1
    65    25    62   1
    66    26    63   1
    67    26    64   1
    68    27    65   1
    69    27    66   1
    70    28    67   1
    71    28    68   1
    72    29    69   1
    73    29    70   1
    74    30    71   1
    75    30    72   1
    76    31    73   1
    77    31    74   1
    78    32    75   1
    79    32    76   1
    80    33    77   1
    81    33    78   1
    82    34    79   1
    83    34    80   1
    84    35    81   1
    85    35    82   1
    86    36    83   1
    87    36    84   1
@<TRIPOS>SUBSTRUCTURE
     1  E12      1

