@<TRIPOS>MOLECULE
1h23_ligand_000
    84    87
SMALL
GAST_HUCK
****
This file was generated by PARSER (from files_GN.cpp)

@<TRIPOS>ATOM
      1 C1          3.8758   57.5634   70.9508 C.2         1 E12       0.1811
      2 N2          3.8954   57.7891   72.2618 N.am        1 E12      -0.2230
      3 O7          4.5051   56.6197   70.4941 O.2         1 E12      -0.4310
      4 C4          2.4005   59.5893   72.0733 C.2         1 E12       0.0225
      5 C5          2.4441   59.3955   70.7025 C.2         1 E12      -0.0779
      6 C14         2.9752   60.4008   74.7654 C.3         1 E12      -0.0310
      7 N17         0.1146   60.3876   72.2092 N.4         1 E12       0.2346
      8 C24        -0.9111   61.4432   72.4109 C.3         1 E12      -0.0329
      9 C6          3.1573   58.3965   70.1438 C.2         1 E12      -0.0278
     10 C9          3.3966   58.9945   74.2737 C.3         1 E12       0.0189
     11 C10         1.5237   60.6367   72.6441 C.3         1 E12      -0.0032
     12 C13         1.5799   60.7474   74.2041 C.3         1 E12      -0.0041
     13 C63        -0.8851   62.5673   71.3337 C.3         1 E12      -0.0126
     14 C29         2.4844   68.4516   60.7937 C.2         1 E12       0.1811
     15 C3          3.2149   58.8056   72.8405 C.2         1 E12       0.0883
     16 N30         3.7920   68.2360   60.9249 N.am        1 E12      -0.2230
     17 C31         4.4457   68.3984   62.0945 C.2         1 E12       0.0883
     18 C32         3.7566   68.8275   63.1938 C.2         1 E12       0.0225
     19 C33         2.3979   69.0416   63.0581 C.2         1 E12      -0.0779
     20 C34         1.7638   68.8628   61.8793 C.2         1 E12      -0.0278
     21 O35         1.9584   68.2908   59.7094 O.2         1 E12      -0.4310
     22 C36         5.8831   68.1778   62.0618 C.3         1 E12       0.0189
     23 C37         4.4207   69.1362   64.4745 C.3         1 E12      -0.0032
     24 C38         5.9828   69.1352   64.4170 C.3         1 E12      -0.0041
     25 C39         6.5499   68.0713   63.4499 C.3         1 E12      -0.0310
     26 N40         3.8767   68.3758   65.6376 N.4         1 E12       0.2346
     27 C41         3.9746   66.8988   65.6583 C.3         1 E12      -0.0329
     28 C64        -0.3321   63.9321   71.8425 C.3         1 E12      -0.0483
     29 C65        -0.2859   65.0453   70.7455 C.3         1 E12      -0.0529
     30 C66         1.1359   65.5197   70.3335 C.3         1 E12      -0.0531
     31 C67         2.0976   64.3938   69.8392 C.3         1 E12      -0.0531
     32 C68         3.4046   64.2289   70.6624 C.3         1 E12      -0.0531
     33 C69         4.4615   65.3550   70.5123 C.3         1 E12      -0.0531
     34 C70         5.0516   65.5472   69.0776 C.3         1 E12      -0.0529
     35 C71         4.4311   66.7130   68.2303 C.3         1 E12      -0.0483
     36 C72         3.5284   66.3074   67.0146 C.3         1 E12      -0.0126
     37 H1          4.4260   57.2012   72.8238 H           1 E12       0.2526
     38 H2          1.9504   60.0134   70.0976 H           1 E12       0.0600
     39 H3          2.9555   60.4216   75.8576 H           1 E12       0.0298
     40 H4          3.7006   61.1456   74.4227 H           1 E12       0.0298
     41 H5         -0.2085   59.5470   72.6933 H           1 E12       0.2022
     42 H6          0.1197   60.1750   71.2123 H           1 E12       0.2022
     43 H7         -0.8581   61.8577   73.4176 H           1 E12       0.0814
     44 H8         -1.8760   60.9344   72.3416 H           1 E12       0.0814
     45 H9          3.1724   58.2830   69.1567 H           1 E12       0.0298
     46 H10         4.4490   58.8549   74.5336 H           1 E12       0.0511
     47 H11         2.8184   58.2307   74.8014 H           1 E12       0.0511
     48 H12         1.8617   61.5895   72.2267 H           1 E12       0.0913
     49 H13         0.8553   60.0602   74.6532 H           1 E12       0.0333
     50 H14         1.3165   61.7605   74.5182 H           1 E12       0.0333
     51 H15        -1.9058   62.7328   70.9801 H           1 E12       0.0317
     52 H16        -0.3094   62.2280   70.4717 H           1 E12       0.0317
     53 H17         4.3081   67.9650   60.1455 H           1 E12       0.2526
     54 H18         1.8635   69.3639   63.8334 H           1 E12       0.0600
     55 H19         0.7906   69.0449   61.7998 H           1 E12       0.0298
     56 H20         6.3432   69.0009   61.5092 H           1 E12       0.0511
     57 H21         6.0982   67.2493   61.5229 H           1 E12       0.0511
     58 H22         4.1568   70.1700   64.7083 H           1 E12       0.0913
     59 H23         6.4009   68.9754   65.4105 H           1 E12       0.0333
     60 H24         6.3273   70.1161   64.0730 H           1 E12       0.0333
     61 H25         7.6290   68.1977   63.3491 H           1 E12       0.0298
     62 H26         6.3811   67.0710   63.8415 H           1 E12       0.0298
     63 H27         4.3444   68.7338   66.4745 H           1 E12       0.2022
     64 H28         2.8847   68.6093   65.7219 H           1 E12       0.2022
     65 H29         3.3512   66.4866   64.8598 H           1 E12       0.0814
     66 H30         4.9954   66.5666   65.5007 H           1 E12       0.0814
     67 H31         0.6604   63.7798   72.2698 H           1 E12       0.0267
     68 H32        -0.9778   64.2707   72.6565 H           1 E12       0.0267
     69 H33        -0.8219   65.9245   71.1182 H           1 E12       0.0265
     70 H34        -0.8152   64.7205   69.8453 H           1 E12       0.0265
     71 H35         1.5787   66.0510   71.1773 H           1 E12       0.0265
     72 H36         1.0224   66.2569   69.5331 H           1 E12       0.0265
     73 H37         2.3515   64.5662   68.8016 H           1 E12       0.0265
     74 H38         1.5900   63.4323   69.8369 H           1 E12       0.0265
     75 H39         3.8725   63.2846   70.3765 H           1 E12       0.0265
     76 H40         3.1404   64.1395   71.7188 H           1 E12       0.0265
     77 H41         5.2847   65.0897   71.1841 H           1 E12       0.0265
     78 H42         4.0526   66.2894   70.8987 H           1 E12       0.0265
     79 H43         5.0104   64.6022   68.5315 H           1 E12       0.0265
     80 H44         6.1183   65.7592   69.1955 H           1 E12       0.0265
     81 H45         5.2629   67.3213   67.8678 H           1 E12       0.0267
     82 H46         3.8534   67.3814   68.8717 H           1 E12       0.0267
     83 H47         2.4967   66.6159   67.2089 H           1 E12       0.0317
     84 H48         3.5264   65.2246   66.8805 H           1 E12       0.0317
@<TRIPOS>BOND
     1     1     9   1
     2     1     3   2
     3     1     2  am
     4     2    15   1
     5    15    10   1
     6    15     4   2
     7     4    11   1
     8     4     5   1
     9     5     9   2
    10    11     7   1
    11    11    12   1
    12    12     6   1
    13     6    10   1
    14     7     8   1
    15     8    13   1
    16    13    28   1
    17    28    29   1
    18    29    30   1
    19    30    31   1
    20    31    32   1
    21    32    33   1
    22    33    34   1
    23    34    35   1
    24    35    36   1
    25    36    27   1
    26    27    26   1
    27    26    23   1
    28    23    24   1
    29    23    18   1
    30    18    19   1
    31    18    17   2
    32    17    22   1
    33    17    16   1
    34    16    14  am
    35    14    20   1
    36    14    21   2
    37    20    19   2
    38    22    25   1
    39    25    24   1
    40     2    37   1
    41     5    38   1
    42     6    39   1
    43     6    40   1
    44     7    41   1
    45     7    42   1
    46     8    43   1
    47     8    44   1
    48     9    45   1
    49    10    46   1
    50    10    47   1
    51    11    48   1
    52    12    49   1
    53    12    50   1
    54    13    51   1
    55    13    52   1
    56    16    53   1
    57    19    54   1
    58    20    55   1
    59    22    56   1
    60    22    57   1
    61    23    58   1
    62    24    59   1
    63    24    60   1
    64    25    61   1
    65    25    62   1
    66    26    63   1
    67    26    64   1
    68    27    65   1
    69    27    66   1
    70    28    67   1
    71    28    68   1
    72    29    69   1
    73    29    70   1
    74    30    71   1
    75    30    72   1
    76    31    73   1
    77    31    74   1
    78    32    75   1
    79    32    76   1
    80    33    77   1
    81    33    78   1
    82    34    79   1
    83    34    80   1
    84    35    81   1
    85    35    82   1
    86    36    83   1
    87    36    84   1
@<TRIPOS>SUBSTRUCTURE
     1  E12      1

