@<TRIPOS>MOLECULE
1h23_ligand_054
    84    87
SMALL
GAST_HUCK
****
This file was generated by PARSER (from files_GN.cpp)

@<TRIPOS>ATOM
      1 C1          2.3937   69.0373   65.7919 C.2         1 E12       0.1811
      2 N2          1.7662   68.9009   64.6248 N.am        1 E12      -0.2230
      3 O7          1.7466   69.0175   66.8260 O.2         1 E12      -0.4310
      4 C4          3.7715   69.0627   63.4249 C.2         1 E12       0.0225
      5 C5          4.4137   69.2627   64.6348 C.2         1 E12      -0.0779
      6 C14         2.3779   68.2865   60.9899 C.3         1 E12      -0.0310
      7 N17         5.5806   67.8851   62.2184 N.4         1 E12       0.2346
      8 C24         5.1913   66.4569   62.2665 C.3         1 E12      -0.0329
      9 C6          3.7424   69.2327   65.8050 C.2         1 E12      -0.0278
     10 C9          1.6016   68.7584   62.2416 C.3         1 E12       0.0189
     11 C10         4.5699   68.9845   62.1900 C.3         1 E12      -0.0032
     12 C13         3.7368   69.0161   60.8679 C.3         1 E12      -0.0041
     13 C63         4.6881   65.9522   63.6448 C.3         1 E12      -0.0126
     14 C29        -0.7797   64.1726   75.4724 C.2         1 E12       0.1811
     15 C3          2.4189   68.9039   63.4399 C.2         1 E12       0.0883
     16 N30        -0.8656   65.1424   74.5619 N.am        1 E12      -0.2230
     17 C31        -0.2912   65.0461   73.3414 C.2         1 E12       0.0883
     18 C32         0.4621   63.9507   73.0386 C.2         1 E12       0.0225
     19 C33         0.5633   62.9554   73.9979 C.2         1 E12      -0.0779
     20 C34        -0.0566   63.0544   75.1915 C.2         1 E12      -0.0278
     21 O35        -1.3499   64.3100   76.5452 O.2         1 E12      -0.4310
     22 C36        -0.4887   66.1688   72.4329 C.3         1 E12       0.0189
     23 C37         1.1464   63.7831   71.7431 C.3         1 E12      -0.0032
     24 C38         1.2229   65.1025   70.9027 C.3         1 E12      -0.0041
     25 C39        -0.1033   65.8858   70.9607 C.3         1 E12      -0.0310
     26 N40         0.4909   62.6595   71.0055 N.4         1 E12       0.2346
     27 C41         1.1447   62.0828   69.7988 C.3         1 E12      -0.0329
     28 C64         4.2879   64.4469   63.6158 C.3         1 E12      -0.0483
     29 C65         4.4514   63.6911   64.9663 C.3         1 E12      -0.0529
     30 C66         3.1322   63.3063   65.6950 C.3         1 E12      -0.0531
     31 C67         3.3824   62.6468   67.0877 C.3         1 E12      -0.0531
     32 C68         3.8599   63.6569   68.1742 C.3         1 E12      -0.0531
     33 C69         4.3824   63.1275   69.5537 C.3         1 E12      -0.0531
     34 C70         4.4978   61.5926   69.8389 C.3         1 E12      -0.0529
     35 C71         3.3737   60.9296   70.6925 C.3         1 E12      -0.0483
     36 C72         1.9705   60.7864   70.0360 C.3         1 E12      -0.0126
     37 H1          0.8025   68.7846   64.6277 H           1 E12       0.2526
     38 H2          5.3952   69.4236   64.6600 H           1 E12       0.0600
     39 H3          2.5275   67.2103   61.0555 H           1 E12       0.0298
     40 H4          1.7792   68.4712   60.0933 H           1 E12       0.0298
     41 H5          6.2053   68.0519   63.0102 H           1 E12       0.2022
     42 H6          6.1440   67.9766   61.3700 H           1 E12       0.2022
     43 H7          6.1063   65.9075   62.0363 H           1 E12       0.0814
     44 H8          4.4822   66.2079   61.4797 H           1 E12       0.0814
     45 H9          4.2255   69.3680   66.6626 H           1 E12       0.0298
     46 H10         1.1357   69.7243   62.0319 H           1 E12       0.0511
     47 H11         0.8002   68.0351   62.4248 H           1 E12       0.0511
     48 H12         5.1764   69.8966   62.1602 H           1 E12       0.0913
     49 H13         4.3100   68.5852   60.0437 H           1 E12       0.0333
     50 H14         3.5318   70.0580   60.6056 H           1 E12       0.0333
     51 H15         3.8213   66.5273   63.9768 H           1 E12       0.0317
     52 H16         5.4962   66.1183   64.3628 H           1 E12       0.0317
     53 H17        -1.3779   65.9379   74.7763 H           1 E12       0.2526
     54 H18         1.0996   62.1386   73.8128 H           1 E12       0.0600
     55 H19         0.0147   62.3182   75.8561 H           1 E12       0.0298
     56 H20         0.1155   66.9998   72.8015 H           1 E12       0.0511
     57 H21        -1.5358   66.4812   72.4543 H           1 E12       0.0511
     58 H22         2.1813   63.5084   71.9619 H           1 E12       0.0913
     59 H23         1.4631   64.9138   69.8553 H           1 E12       0.0333
     60 H24         2.0225   65.7349   71.3001 H           1 E12       0.0333
     61 H25         0.0016   66.8287   70.4161 H           1 E12       0.0298
     62 H26        -0.8879   65.2998   70.4740 H           1 E12       0.0298
     63 H27         0.3353   61.8860   71.6605 H           1 E12       0.2022
     64 H28        -0.4341   62.9960   70.7147 H           1 E12       0.2022
     65 H29         0.3351   61.8222   69.1132 H           1 E12       0.0814
     66 H30         1.7582   62.8156   69.2836 H           1 E12       0.0814
     67 H31         4.9194   63.9288   62.8884 H           1 E12       0.0267
     68 H32         3.2582   64.3601   63.2560 H           1 E12       0.0267
     69 H33         5.0717   64.2869   65.6383 H           1 E12       0.0265
     70 H34         4.9994   62.7623   64.7726 H           1 E12       0.0265
     71 H35         2.5949   62.5821   65.0729 H           1 E12       0.0265
     72 H36         2.4911   64.1858   65.8128 H           1 E12       0.0265
     73 H37         4.1166   61.8437   66.9772 H           1 E12       0.0265
     74 H38         2.4473   62.1887   67.4128 H           1 E12       0.0265
     75 H39         3.0372   64.3516   68.3631 H           1 E12       0.0265
     76 H40         4.6620   64.2604   67.7320 H           1 E12       0.0265
     77 H41         3.7867   63.5860   70.3477 H           1 E12       0.0265
     78 H42         5.3866   63.5511   69.6889 H           1 E12       0.0265
     79 H43         5.4262   61.4446   70.4064 H           1 E12       0.0265
     80 H44         4.6205   61.0273   68.9105 H           1 E12       0.0265
     81 H45         3.2965   61.4250   71.6609 H           1 E12       0.0267
     82 H46         3.7131   59.9093   70.9054 H           1 E12       0.0267
     83 H47         1.3718   60.1225   70.6687 H           1 E12       0.0317
     84 H48         2.0983   60.2768   69.0751 H           1 E12       0.0317
@<TRIPOS>BOND
     1     1     9   1
     2     1     3   2
     3     1     2  am
     4     2    15   1
     5    15    10   1
     6    15     4   2
     7     4    11   1
     8     4     5   1
     9     5     9   2
    10    11     7   1
    11    11    12   1
    12    12     6   1
    13     6    10   1
    14     7     8   1
    15     8    13   1
    16    13    28   1
    17    28    29   1
    18    29    30   1
    19    30    31   1
    20    31    32   1
    21    32    33   1
    22    33    34   1
    23    34    35   1
    24    35    36   1
    25    36    27   1
    26    27    26   1
    27    26    23   1
    28    23    24   1
    29    23    18   1
    30    18    19   1
    31    18    17   2
    32    17    22   1
    33    17    16   1
    34    16    14  am
    35    14    20   1
    36    14    21   2
    37    20    19   2
    38    22    25   1
    39    25    24   1
    40     2    37   1
    41     5    38   1
    42     6    39   1
    43     6    40   1
    44     7    41   1
    45     7    42   1
    46     8    43   1
    47     8    44   1
    48     9    45   1
    49    10    46   1
    50    10    47   1
    51    11    48   1
    52    12    49   1
    53    12    50   1
    54    13    51   1
    55    13    52   1
    56    16    53   1
    57    19    54   1
    58    20    55   1
    59    22    56   1
    60    22    57   1
    61    23    58   1
    62    24    59   1
    63    24    60   1
    64    25    61   1
    65    25    62   1
    66    26    63   1
    67    26    64   1
    68    27    65   1
    69    27    66   1
    70    28    67   1
    71    28    68   1
    72    29    69   1
    73    29    70   1
    74    30    71   1
    75    30    72   1
    76    31    73   1
    77    31    74   1
    78    32    75   1
    79    32    76   1
    80    33    77   1
    81    33    78   1
    82    34    79   1
    83    34    80   1
    84    35    81   1
    85    35    82   1
    86    36    83   1
    87    36    84   1
@<TRIPOS>SUBSTRUCTURE
     1  E12      1

