@<TRIPOS>MOLECULE
1h23_ligand_025
    84    87
SMALL
GAST_HUCK
****
This file was generated by PARSER (from files_GN.cpp)

@<TRIPOS>ATOM
      1 C1          1.6282   69.3377   62.1334 C.2         1 E12       0.1811
      2 N2          2.8927   69.1730   61.7568 N.am        1 E12      -0.2230
      3 O7          0.7827   69.6020   61.2871 O.2         1 E12      -0.4310
      4 C4          3.5947   68.7618   63.9651 C.2         1 E12       0.0225
      5 C5          2.2820   68.9846   64.3521 C.2         1 E12      -0.0779
      6 C14         6.3422   69.0228   63.1580 C.3         1 E12      -0.0310
      7 N17         4.1522   67.2170   65.7644 N.4         1 E12       0.2346
      8 C24         4.9567   66.7272   66.9180 C.3         1 E12      -0.0329
      9 C6          1.3061   69.2518   63.4540 C.2         1 E12      -0.0278
     10 C9          5.2339   68.8365   62.0937 C.3         1 E12       0.0189
     11 C10         4.6144   68.4076   64.9834 C.3         1 E12      -0.0032
     12 C13         6.0378   68.1395   64.3856 C.3         1 E12      -0.0041
     13 C63         4.3881   65.3816   67.4789 C.3         1 E12      -0.0126
     14 C29         4.1554   56.7241   77.5620 C.2         1 E12       0.1811
     15 C3          3.8878   68.9219   62.6445 C.2         1 E12       0.0883
     16 N30         3.5999   55.6110   77.0884 N.am        1 E12      -0.2230
     17 C31         2.8008   55.6026   75.9988 C.2         1 E12       0.0883
     18 C32         2.6544   56.7403   75.2615 C.2         1 E12       0.0225
     19 C33         3.1969   57.9059   75.7855 C.2         1 E12      -0.0779
     20 C34         3.9357   57.9049   76.9132 C.2         1 E12      -0.0278
     21 O35         4.8566   56.6644   78.5621 O.2         1 E12      -0.4310
     22 C36         2.1370   54.3455   75.6907 C.3         1 E12       0.0189
     23 C37         1.9121   56.7794   73.9813 C.3         1 E12      -0.0032
     24 C38         1.3401   55.3884   73.5367 C.3         1 E12      -0.0041
     25 C39         0.9263   54.5143   74.7408 C.3         1 E12      -0.0310
     26 N40         2.7944   57.3465   72.9122 N.4         1 E12       0.2346
     27 C41         2.1877   57.6183   71.5834 C.3         1 E12      -0.0329
     28 C64         3.4832   65.4896   68.7413 C.3         1 E12      -0.0483
     29 C65         4.2238   65.7691   70.0812 C.3         1 E12      -0.0529
     30 C66         5.1170   64.6291   70.6519 C.3         1 E12      -0.0531
     31 C67         4.3883   63.3076   71.0551 C.3         1 E12      -0.0531
     32 C68         5.2284   62.3773   71.9958 C.3         1 E12      -0.0531
     33 C69         5.7201   61.0111   71.4259 C.3         1 E12      -0.0531
     34 C70         4.8007   59.7694   71.6637 C.3         1 E12      -0.0529
     35 C71         3.7689   59.4798   70.5415 C.3         1 E12      -0.0483
     36 C72         3.2338   58.0158   70.5051 C.3         1 E12      -0.0126
     37 H1          3.1146   69.2556   60.8147 H           1 E12       0.2526
     38 H2          2.0310   68.9546   65.3094 H           1 E12       0.0600
     39 H3          7.3091   68.7439   62.7284 H           1 E12       0.0298
     40 H4          6.3907   70.0735   63.4588 H           1 E12       0.0298
     41 H5          4.0640   66.4428   65.1048 H           1 E12       0.2022
     42 H6          3.2200   67.4180   66.1323 H           1 E12       0.2022
     43 H7          4.9811   67.5028   67.6886 H           1 E12       0.0814
     44 H8          5.9834   66.5405   66.5971 H           1 E12       0.0814
     45 H9          0.3721   69.4074   63.7569 H           1 E12       0.0298
     46 H10         5.3719   69.6076   61.3280 H           1 E12       0.0511
     47 H11         5.3470   67.8603   61.6123 H           1 E12       0.0511
     48 H12         4.6923   69.2651   65.6605 H           1 E12       0.0913
     49 H13         6.1134   67.0937   64.0760 H           1 E12       0.0333
     50 H14         6.8048   68.3218   65.1432 H           1 E12       0.0333
     51 H15         5.2220   64.7044   67.6965 H           1 E12       0.0317
     52 H16         3.7949   64.8919   66.6965 H           1 E12       0.0317
     53 H17         3.7876   54.7678   77.5291 H           1 E12       0.2526
     54 H18         3.0312   58.7756   75.3355 H           1 E12       0.0600
     55 H19         4.3086   58.7546   77.2731 H           1 E12       0.0298
     56 H20         1.7725   53.8859   76.6138 H           1 E12       0.0511
     57 H21         2.8616   53.6622   75.2429 H           1 E12       0.0511
     58 H22         1.0621   57.4541   74.1287 H           1 E12       0.0913
     59 H23         2.0952   54.8435   72.9623 H           1 E12       0.0333
     60 H24         0.4646   55.5290   72.8969 H           1 E12       0.0333
     61 H25         0.1001   54.9931   75.2722 H           1 E12       0.0298
     62 H26         0.5875   53.5310   74.3967 H           1 E12       0.0298
     63 H27         3.1660   58.2366   73.2483 H           1 E12       0.2022
     64 H28         3.5830   56.7083   72.7969 H           1 E12       0.2022
     65 H29         1.6877   56.7187   71.2151 H           1 E12       0.0814
     66 H30         1.4339   58.4064   71.6771 H           1 E12       0.0814
     67 H31         2.9189   64.5606   68.8457 H           1 E12       0.0267
     68 H32         2.7520   66.2858   68.5691 H           1 E12       0.0267
     69 H33         3.4818   66.0394   70.8380 H           1 E12       0.0265
     70 H34         4.8599   66.6445   69.9429 H           1 E12       0.0265
     71 H35         5.5911   65.0431   71.5438 H           1 E12       0.0265
     72 H36         5.9171   64.3917   69.9434 H           1 E12       0.0265
     73 H37         4.0961   62.7659   70.1507 H           1 E12       0.0265
     74 H38         3.4648   63.5739   71.5780 H           1 E12       0.0265
     75 H39         4.6594   62.1886   72.9112 H           1 E12       0.0265
     76 H40         6.1206   62.9231   72.3205 H           1 E12       0.0265
     77 H41         6.6646   60.7835   71.9293 H           1 E12       0.0265
     78 H42         5.9680   61.1126   70.3670 H           1 E12       0.0265
     79 H43         4.2801   59.8694   72.6193 H           1 E12       0.0265
     80 H44         5.4514   58.8938   71.7493 H           1 E12       0.0265
     81 H45         4.2555   59.6579   69.5783 H           1 E12       0.0267
     82 H46         2.9307   60.1770   70.6171 H           1 E12       0.0267
     83 H47         4.0715   57.3117   70.5417 H           1 E12       0.0317
     84 H48         2.7584   57.8784   69.5269 H           1 E12       0.0317
@<TRIPOS>BOND
     1     1     9   1
     2     1     3   2
     3     1     2  am
     4     2    15   1
     5    15    10   1
     6    15     4   2
     7     4    11   1
     8     4     5   1
     9     5     9   2
    10    11     7   1
    11    11    12   1
    12    12     6   1
    13     6    10   1
    14     7     8   1
    15     8    13   1
    16    13    28   1
    17    28    29   1
    18    29    30   1
    19    30    31   1
    20    31    32   1
    21    32    33   1
    22    33    34   1
    23    34    35   1
    24    35    36   1
    25    36    27   1
    26    27    26   1
    27    26    23   1
    28    23    24   1
    29    23    18   1
    30    18    19   1
    31    18    17   2
    32    17    22   1
    33    17    16   1
    34    16    14  am
    35    14    20   1
    36    14    21   2
    37    20    19   2
    38    22    25   1
    39    25    24   1
    40     2    37   1
    41     5    38   1
    42     6    39   1
    43     6    40   1
    44     7    41   1
    45     7    42   1
    46     8    43   1
    47     8    44   1
    48     9    45   1
    49    10    46   1
    50    10    47   1
    51    11    48   1
    52    12    49   1
    53    12    50   1
    54    13    51   1
    55    13    52   1
    56    16    53   1
    57    19    54   1
    58    20    55   1
    59    22    56   1
    60    22    57   1
    61    23    58   1
    62    24    59   1
    63    24    60   1
    64    25    61   1
    65    25    62   1
    66    26    63   1
    67    26    64   1
    68    27    65   1
    69    27    66   1
    70    28    67   1
    71    28    68   1
    72    29    69   1
    73    29    70   1
    74    30    71   1
    75    30    72   1
    76    31    73   1
    77    31    74   1
    78    32    75   1
    79    32    76   1
    80    33    77   1
    81    33    78   1
    82    34    79   1
    83    34    80   1
    84    35    81   1
    85    35    82   1
    86    36    83   1
    87    36    84   1
@<TRIPOS>SUBSTRUCTURE
     1  E12      1

