@<TRIPOS>MOLECULE
1h23_ligand_088
    84    87
SMALL
GAST_HUCK
****
This file was generated by PARSER (from files_GN.cpp)

@<TRIPOS>ATOM
      1 C1         -0.2013   65.3953   73.9604 C.2         1 E12       0.1811
      2 N2         -0.6293   64.4791   74.8257 N.am        1 E12      -0.2230
      3 O7          0.0629   66.5178   74.3618 O.2         1 E12      -0.4310
      4 C4         -0.8109   62.8546   73.1437 C.2         1 E12       0.0225
      5 C5         -0.4056   63.8252   72.2428 C.2         1 E12      -0.0779
      6 C14        -2.3806   61.2039   74.8984 C.3         1 E12      -0.0310
      7 N17        -0.0900   60.8629   71.8145 N.4         1 E12       0.2346
      8 C24         1.3076   60.7898   72.3136 C.3         1 E12      -0.0329
      9 C6         -0.0946   65.0759   72.6406 C.2         1 E12      -0.0278
     10 C9         -1.5024   62.3417   75.4745 C.3         1 E12       0.0189
     11 C10        -1.1458   61.4983   72.6606 C.3         1 E12      -0.0032
     12 C13        -1.6172   60.4899   73.7610 C.3         1 E12      -0.0041
     13 C63         2.1332   59.7711   71.4749 C.3         1 E12      -0.0126
     14 C29         1.6688   69.3761   62.1349 C.2         1 E12       0.1811
     15 C3         -0.9660   63.2254   74.4469 C.2         1 E12       0.0883
     16 N30         2.9537   69.3068   61.7941 N.am        1 E12      -0.2230
     17 C31         3.9388   69.1131   62.7020 C.2         1 E12       0.0883
     18 C32         3.6262   69.0500   64.0262 C.2         1 E12       0.0225
     19 C33         2.2870   69.1262   64.3726 C.2         1 E12      -0.0779
     20 C34         1.3183   69.2705   63.4466 C.2         1 E12      -0.0278
     21 O35         0.8252   69.5603   61.2707 O.2         1 E12      -0.4310
     22 C36         5.2990   69.0078   62.1921 C.3         1 E12       0.0189
     23 C37         4.6473   68.8684   65.0800 C.3         1 E12      -0.0032
     24 C38         6.1260   68.9368   64.5775 C.3         1 E12      -0.0041
     25 C39         6.2788   68.3161   63.1727 C.3         1 E12      -0.0310
     26 N40         4.4062   67.5687   65.7826 N.4         1 E12       0.2346
     27 C41         3.8718   67.6435   67.1655 C.3         1 E12      -0.0329
     28 C64         3.6728   59.9650   71.5844 C.3         1 E12      -0.0483
     29 C65         4.2112   61.1876   70.7669 C.3         1 E12      -0.0529
     30 C66         5.1831   62.1033   71.5654 C.3         1 E12      -0.0531
     31 C67         5.5071   63.4745   70.9043 C.3         1 E12      -0.0531
     32 C68         4.2641   64.3691   70.6367 C.3         1 E12      -0.0531
     33 C69         4.6037   65.8550   70.3334 C.3         1 E12      -0.0531
     34 C70         3.3475   66.7552   70.1354 C.3         1 E12      -0.0529
     35 C71         2.4250   66.3933   68.9360 C.3         1 E12      -0.0483
     36 C72         3.0823   66.3615   67.5273 C.3         1 E12      -0.0126
     37 H1         -0.7149   64.7262   75.7605 H           1 E12       0.2526
     38 H2         -0.3489   63.6110   71.2732 H           1 E12       0.0600
     39 H3         -2.6254   60.4888   75.6878 H           1 E12       0.0298
     40 H4         -3.3152   61.6190   74.5093 H           1 E12       0.0298
     41 H5         -0.0607   61.3605   70.9211 H           1 E12       0.2022
     42 H6         -0.3950   59.9082   71.6195 H           1 E12       0.2022
     43 H7          1.3387   60.4764   73.3604 H           1 E12       0.0814
     44 H8          1.7488   61.7869   72.2487 H           1 E12       0.0814
     45 H9          0.1916   65.7569   71.9753 H           1 E12       0.0298
     46 H10        -2.1144   62.9126   76.1789 H           1 E12       0.0511
     47 H11        -0.6643   61.9143   76.0317 H           1 E12       0.0511
     48 H12        -2.0049   61.6312   71.9946 H           1 E12       0.0913
     49 H13        -0.7632   59.9713   74.2036 H           1 E12       0.0333
     50 H14        -2.2639   59.7306   73.3125 H           1 E12       0.0333
     51 H15         1.8454   59.8343   70.4225 H           1 E12       0.0317
     52 H16         1.8802   58.7614   71.8158 H           1 E12       0.0317
     53 H17         3.1897   69.3946   60.8580 H           1 E12       0.2526
     54 H18         2.0148   69.0813   65.3272 H           1 E12       0.0600
     55 H19         0.3638   69.3235   63.7256 H           1 E12       0.0298
     56 H20         5.6598   70.0140   61.9649 H           1 E12       0.0511
     57 H21         5.2997   68.4336   61.2642 H           1 E12       0.0511
     58 H22         4.5424   69.7052   65.7839 H           1 E12       0.0913
     59 H23         6.7994   68.4291   65.2742 H           1 E12       0.0333
     60 H24         6.4410   69.9855   64.5309 H           1 E12       0.0333
     61 H25         7.3071   68.4384   62.8223 H           1 E12       0.0298
     62 H26         6.0619   67.2457   63.2227 H           1 E12       0.0298
     63 H27         3.7595   67.0126   65.2168 H           1 E12       0.2022
     64 H28         5.2838   67.0436   65.8295 H           1 E12       0.2022
     65 H29         4.7223   67.7670   67.8362 H           1 E12       0.0814
     66 H30         3.2054   68.5001   67.2978 H           1 E12       0.0814
     67 H31         4.1654   59.0578   71.2176 H           1 E12       0.0267
     68 H32         3.9303   60.0567   72.6448 H           1 E12       0.0267
     69 H33         3.3754   61.7975   70.4183 H           1 E12       0.0265
     70 H34         4.7314   60.8268   69.8735 H           1 E12       0.0265
     71 H35         6.1249   61.5684   71.7131 H           1 E12       0.0265
     72 H36         4.7669   62.3017   72.5573 H           1 E12       0.0265
     73 H37         6.0357   63.3131   69.9606 H           1 E12       0.0265
     74 H38         6.1850   64.0100   71.5745 H           1 E12       0.0265
     75 H39         3.6051   64.3413   71.5057 H           1 E12       0.0265
     76 H40         3.7227   63.9596   69.7816 H           1 E12       0.0265
     77 H41         5.2439   65.9152   69.4473 H           1 E12       0.0265
     78 H42         5.1742   66.2663   71.1730 H           1 E12       0.0265
     79 H43         3.6728   67.7936   70.0296 H           1 E12       0.0265
     80 H44         2.7432   66.7144   71.0464 H           1 E12       0.0265
     81 H45         1.6030   67.1136   68.9138 H           1 E12       0.0267
     82 H46         1.9752   65.4144   69.1213 H           1 E12       0.0267
     83 H47         2.2812   66.2287   66.7886 H           1 E12       0.0317
     84 H48         3.7434   65.4929   67.4463 H           1 E12       0.0317
@<TRIPOS>BOND
     1     1     9   1
     2     1     3   2
     3     1     2  am
     4     2    15   1
     5    15    10   1
     6    15     4   2
     7     4    11   1
     8     4     5   1
     9     5     9   2
    10    11     7   1
    11    11    12   1
    12    12     6   1
    13     6    10   1
    14     7     8   1
    15     8    13   1
    16    13    28   1
    17    28    29   1
    18    29    30   1
    19    30    31   1
    20    31    32   1
    21    32    33   1
    22    33    34   1
    23    34    35   1
    24    35    36   1
    25    36    27   1
    26    27    26   1
    27    26    23   1
    28    23    24   1
    29    23    18   1
    30    18    19   1
    31    18    17   2
    32    17    22   1
    33    17    16   1
    34    16    14  am
    35    14    20   1
    36    14    21   2
    37    20    19   2
    38    22    25   1
    39    25    24   1
    40     2    37   1
    41     5    38   1
    42     6    39   1
    43     6    40   1
    44     7    41   1
    45     7    42   1
    46     8    43   1
    47     8    44   1
    48     9    45   1
    49    10    46   1
    50    10    47   1
    51    11    48   1
    52    12    49   1
    53    12    50   1
    54    13    51   1
    55    13    52   1
    56    16    53   1
    57    19    54   1
    58    20    55   1
    59    22    56   1
    60    22    57   1
    61    23    58   1
    62    24    59   1
    63    24    60   1
    64    25    61   1
    65    25    62   1
    66    26    63   1
    67    26    64   1
    68    27    65   1
    69    27    66   1
    70    28    67   1
    71    28    68   1
    72    29    69   1
    73    29    70   1
    74    30    71   1
    75    30    72   1
    76    31    73   1
    77    31    74   1
    78    32    75   1
    79    32    76   1
    80    33    77   1
    81    33    78   1
    82    34    79   1
    83    34    80   1
    84    35    81   1
    85    35    82   1
    86    36    83   1
    87    36    84   1
@<TRIPOS>SUBSTRUCTURE
     1  E12      1

