@<TRIPOS>MOLECULE
1h23_ligand_042
    84    87
SMALL
GAST_HUCK
****
This file was generated by PARSER (from files_GN.cpp)

@<TRIPOS>ATOM
      1 C1          6.2014   58.9097   80.7525 C.2         1 E12       0.1811
      2 N2          5.2015   58.0312   80.7149 N.am        1 E12      -0.2230
      3 O7          7.1274   58.7274   81.5282 O.2         1 E12      -0.4310
      4 C4          4.1241   59.1834   78.9738 C.2         1 E12       0.0225
      5 C5          5.1300   60.1384   79.0771 C.2         1 E12      -0.0779
      6 C14         1.8014   57.5034   79.2408 C.3         1 E12      -0.0310
      7 N17         3.7547   59.6250   76.6104 N.4         1 E12       0.2346
      8 C24         3.0887   59.3741   75.3095 C.3         1 E12      -0.0329
      9 C6          6.1631   59.9978   79.9320 C.2         1 E12      -0.0278
     10 C9          3.1086   57.1469   79.9900 C.3         1 E12       0.0189
     11 C10         3.0926   59.2877   77.9102 C.3         1 E12      -0.0032
     12 C13         2.1543   58.0358   77.8329 C.3         1 E12      -0.0041
     13 C63         3.9632   59.9437   74.1615 C.3         1 E12      -0.0126
     14 C29         2.5372   68.4535   60.7881 C.2         1 E12       0.1811
     15 C3          4.1483   58.1621   79.8766 C.2         1 E12       0.0883
     16 N30         3.8349   68.2231   60.9636 N.am        1 E12      -0.2230
     17 C31         4.4272   68.2976   62.1737 C.2         1 E12       0.0883
     18 C32         3.6711   68.5203   63.2872 C.2         1 E12       0.0225
     19 C33         2.3399   68.8593   63.0830 C.2         1 E12      -0.0779
     20 C34         1.7707   68.8024   61.8600 C.2         1 E12      -0.0278
     21 O35         2.0613   68.3474   59.6682 O.2         1 E12      -0.4310
     22 C36         5.8663   68.0943   62.1906 C.3         1 E12       0.0189
     23 C37         4.2258   68.4519   64.6616 C.3         1 E12      -0.0032
     24 C38         5.7168   67.9760   64.7061 C.3         1 E12      -0.0041
     25 C39         6.5389   68.5115   63.5177 C.3         1 E12      -0.0310
     26 N40         3.3776   67.5552   65.5109 N.4         1 E12       0.2346
     27 C41         3.6865   67.4387   66.9595 C.3         1 E12      -0.0329
     28 C64         3.4530   59.5727   72.7395 C.3         1 E12      -0.0483
     29 C65         4.5586   59.6004   71.6435 C.3         1 E12      -0.0529
     30 C66         5.3952   60.9029   71.5126 C.3         1 E12      -0.0531
     31 C67         4.5781   62.1684   71.1371 C.3         1 E12      -0.0531
     32 C68         5.4732   63.4308   70.9851 C.3         1 E12      -0.0531
     33 C69         4.6781   64.7406   70.7225 C.3         1 E12      -0.0531
     34 C70         4.2738   64.9752   69.2398 C.3         1 E12      -0.0529
     35 C71         3.1534   66.0489   69.1004 C.3         1 E12      -0.0483
     36 C72         2.7611   66.3833   67.6307 C.3         1 E12      -0.0126
     37 H1          5.2354   57.2631   81.3056 H           1 E12       0.2526
     38 H2          5.1014   60.9556   78.5103 H           1 E12       0.0600
     39 H3          1.1683   56.6122   79.1684 H           1 E12       0.0298
     40 H4          1.2511   58.2682   79.7998 H           1 E12       0.0298
     41 H5          4.6519   59.1243   76.5904 H           1 E12       0.2022
     42 H6          3.9586   60.6297   76.6409 H           1 E12       0.2022
     43 H7          2.0962   59.8301   75.2851 H           1 E12       0.0814
     44 H8          2.9940   58.2903   75.1695 H           1 E12       0.0814
     45 H9          6.8776   60.6911   79.9804 H           1 E12       0.0298
     46 H10         2.8650   56.9883   81.0472 H           1 E12       0.0511
     47 H11         3.5066   56.2099   79.5919 H           1 E12       0.0511
     48 H12         2.4568   60.1391   78.1735 H           1 E12       0.0913
     49 H13         2.6491   57.2312   77.2814 H           1 E12       0.0333
     50 H14         1.2283   58.2868   77.3070 H           1 E12       0.0333
     51 H15         4.9790   59.5511   74.2805 H           1 E12       0.0317
     52 H16         4.0124   61.0349   74.2477 H           1 E12       0.0317
     53 H17         4.3880   68.0107   60.1943 H           1 E12       0.2526
     54 H18         1.7810   69.1708   63.8459 H           1 E12       0.0600
     55 H19         0.8165   69.0562   61.7338 H           1 E12       0.0298
     56 H20         6.3184   68.6885   61.3888 H           1 E12       0.0511
     57 H21         6.0708   67.0375   61.9863 H           1 E12       0.0511
     58 H22         4.1844   69.4650   65.0809 H           1 E12       0.0913
     59 H23         5.7588   66.8814   64.6818 H           1 E12       0.0333
     60 H24         6.1928   68.3036   65.6311 H           1 E12       0.0333
     61 H25         6.6032   69.6046   63.5684 H           1 E12       0.0298
     62 H26         7.5548   68.1059   63.5414 H           1 E12       0.0298
     63 H27         2.4114   67.8813   65.4450 H           1 E12       0.2022
     64 H28         3.4244   66.6141   65.1089 H           1 E12       0.2022
     65 H29         4.7262   67.1319   67.0957 H           1 E12       0.0814
     66 H30         3.5422   68.4069   67.4457 H           1 E12       0.0814
     67 H31         2.6358   60.2402   72.4557 H           1 E12       0.0267
     68 H32         3.0508   58.5544   72.7570 H           1 E12       0.0267
     69 H33         4.0978   59.3796   70.6773 H           1 E12       0.0265
     70 H34         5.2567   58.7860   71.8565 H           1 E12       0.0265
     71 H35         6.1521   60.7404   70.7410 H           1 E12       0.0265
     72 H36         5.9232   61.0852   72.4510 H           1 E12       0.0265
     73 H37         3.8389   62.3609   71.9178 H           1 E12       0.0265
     74 H38         4.0445   61.9840   70.2021 H           1 E12       0.0265
     75 H39         6.1965   63.2833   70.1818 H           1 E12       0.0265
     76 H40         6.0385   63.5600   71.9128 H           1 E12       0.0265
     77 H41         5.3031   65.5825   71.0335 H           1 E12       0.0265
     78 H42         3.7921   64.7449   71.3590 H           1 E12       0.0265
     79 H43         3.9230   64.0420   68.7971 H           1 E12       0.0265
     80 H44         5.1589   65.2943   68.6850 H           1 E12       0.0265
     81 H45         3.4596   66.9646   69.6109 H           1 E12       0.0267
     82 H46         2.2656   65.6709   69.6176 H           1 E12       0.0267
     83 H47         1.7403   66.7788   67.6289 H           1 E12       0.0317
     84 H48         2.7545   65.4599   67.0393 H           1 E12       0.0317
@<TRIPOS>BOND
     1     1     9   1
     2     1     3   2
     3     1     2  am
     4     2    15   1
     5    15    10   1
     6    15     4   2
     7     4    11   1
     8     4     5   1
     9     5     9   2
    10    11     7   1
    11    11    12   1
    12    12     6   1
    13     6    10   1
    14     7     8   1
    15     8    13   1
    16    13    28   1
    17    28    29   1
    18    29    30   1
    19    30    31   1
    20    31    32   1
    21    32    33   1
    22    33    34   1
    23    34    35   1
    24    35    36   1
    25    36    27   1
    26    27    26   1
    27    26    23   1
    28    23    24   1
    29    23    18   1
    30    18    19   1
    31    18    17   2
    32    17    22   1
    33    17    16   1
    34    16    14  am
    35    14    20   1
    36    14    21   2
    37    20    19   2
    38    22    25   1
    39    25    24   1
    40     2    37   1
    41     5    38   1
    42     6    39   1
    43     6    40   1
    44     7    41   1
    45     7    42   1
    46     8    43   1
    47     8    44   1
    48     9    45   1
    49    10    46   1
    50    10    47   1
    51    11    48   1
    52    12    49   1
    53    12    50   1
    54    13    51   1
    55    13    52   1
    56    16    53   1
    57    19    54   1
    58    20    55   1
    59    22    56   1
    60    22    57   1
    61    23    58   1
    62    24    59   1
    63    24    60   1
    64    25    61   1
    65    25    62   1
    66    26    63   1
    67    26    64   1
    68    27    65   1
    69    27    66   1
    70    28    67   1
    71    28    68   1
    72    29    69   1
    73    29    70   1
    74    30    71   1
    75    30    72   1
    76    31    73   1
    77    31    74   1
    78    32    75   1
    79    32    76   1
    80    33    77   1
    81    33    78   1
    82    34    79   1
    83    34    80   1
    84    35    81   1
    85    35    82   1
    86    36    83   1
    87    36    84   1
@<TRIPOS>SUBSTRUCTURE
     1  E12      1

