@<TRIPOS>MOLECULE
1h23_ligand_007
    84    87
SMALL
GAST_HUCK
****
This file was generated by PARSER (from files_GN.cpp)

@<TRIPOS>ATOM
      1 C1          4.1543   56.7425   77.7383 C.2         1 E12       0.1811
      2 N2          3.5977   55.6528   77.2024 N.am        1 E12      -0.2230
      3 O7          4.7925   56.6438   78.7679 O.2         1 E12      -0.4310
      4 C4          2.7656   56.8528   75.3687 C.2         1 E12       0.0225
      5 C5          3.3072   57.9886   75.9449 C.2         1 E12      -0.0779
      6 C14         1.0740   54.6442   74.6359 C.3         1 E12      -0.0310
      7 N17         2.9727   57.5791   73.0602 N.4         1 E12       0.2346
      8 C24         2.4650   57.7873   71.6785 C.3         1 E12      -0.0329
      9 C6          3.9951   57.9405   77.1109 C.2         1 E12      -0.0278
     10 C9          2.2042   54.4478   75.6778 C.3         1 E12       0.0189
     11 C10         2.0661   56.9437   74.0615 C.3         1 E12      -0.0032
     12 C13         1.5604   55.5731   73.5086 C.3         1 E12      -0.0041
     13 C63         3.6181   58.3209   70.7845 C.3         1 E12      -0.0126
     14 C29         2.3931   68.9887   65.7695 C.2         1 E12       0.1811
     15 C3          2.8621   55.6876   76.0679 C.2         1 E12       0.0883
     16 N30         1.7615   68.8923   64.6038 N.am        1 E12      -0.2230
     17 C31         2.4063   68.9509   63.4137 C.2         1 E12       0.0883
     18 C32         3.7576   69.1222   63.3961 C.2         1 E12       0.0225
     19 C33         4.4023   69.2995   64.6127 C.2         1 E12      -0.0779
     20 C34         3.7398   69.2111   65.7827 C.2         1 E12      -0.0278
     21 O35         1.7545   68.9255   66.8090 O.2         1 E12      -0.4310
     22 C36         1.5858   68.8554   62.2135 C.3         1 E12       0.0189
     23 C37         4.5512   69.0491   62.1585 C.3         1 E12      -0.0032
     24 C38         3.7155   69.0738   60.8368 C.3         1 E12      -0.0041
     25 C39         2.3505   68.3559   60.9664 C.3         1 E12      -0.0310
     26 N40         5.5716   67.9494   62.1780 N.4         1 E12       0.2346
     27 C41         5.1948   66.5133   62.2544 C.3         1 E12      -0.0329
     28 C64         3.1869   59.3641   69.7090 C.3         1 E12      -0.0483
     29 C65         4.2949   60.4180   69.3991 C.3         1 E12      -0.0529
     30 C66         3.7951   61.8872   69.2541 C.3         1 E12      -0.0531
     31 C67         3.3238   62.2871   67.8294 C.3         1 E12      -0.0531
     32 C68         3.4566   63.8188   67.5698 C.3         1 E12      -0.0531
     33 C69         3.2642   64.2664   66.0876 C.3         1 E12      -0.0531
     34 C70         4.5211   64.0262   65.2055 C.3         1 E12      -0.0529
     35 C71         4.4437   64.5276   63.7361 C.3         1 E12      -0.0483
     36 C72         4.5199   66.0680   63.5841 C.3         1 E12      -0.0126
     37 H1          3.7561   54.7956   77.6267 H           1 E12       0.2526
     38 H2          3.1929   58.8761   75.5158 H           1 E12       0.0600
     39 H3          0.7776   53.6751   74.2221 H           1 E12       0.0298
     40 H4          0.1972   55.0884   75.1186 H           1 E12       0.0298
     41 H5          3.8295   57.0325   73.0097 H           1 E12       0.2022
     42 H6          3.2233   58.5049   73.4083 H           1 E12       0.2022
     43 H7          1.6372   58.5015   71.7241 H           1 E12       0.0814
     44 H8          2.0919   56.8541   71.2530 H           1 E12       0.0814
     45 H9          4.3755   58.7701   77.5041 H           1 E12       0.0298
     46 H10         1.7635   53.9741   76.5603 H           1 E12       0.0511
     47 H11         2.9569   53.7650   75.2756 H           1 E12       0.0511
     48 H12         1.2010   57.5895   74.2171 H           1 E12       0.0913
     49 H13         2.3658   55.0697   72.9653 H           1 E12       0.0333
     50 H14         0.7350   55.7383   72.8067 H           1 E12       0.0333
     51 H15         4.1039   57.4722   70.2893 H           1 E12       0.0317
     52 H16         4.3740   58.7730   71.4338 H           1 E12       0.0317
     53 H17         0.7982   68.7635   64.6087 H           1 E12       0.2526
     54 H18         5.3846   69.4523   64.6369 H           1 E12       0.0600
     55 H19         4.2286   69.3077   66.6437 H           1 E12       0.0298
     56 H20         1.1730   69.8463   62.0103 H           1 E12       0.0511
     57 H21         0.7470   68.1740   62.3849 H           1 E12       0.0511
     58 H22         5.1497   69.9692   62.1299 H           1 E12       0.0913
     59 H23         4.2828   68.6318   60.0148 H           1 E12       0.0333
     60 H24         3.5203   70.1147   60.5634 H           1 E12       0.0333
     61 H25         1.7502   68.5343   60.0696 H           1 E12       0.0298
     62 H26         2.4929   67.2789   61.0475 H           1 E12       0.0298
     63 H27         6.1248   68.0469   61.3228 H           1 E12       0.2022
     64 H28         6.2092   68.1356   62.9553 H           1 E12       0.2022
     65 H29         4.5971   66.2094   61.3998 H           1 E12       0.0814
     66 H30         6.1417   65.9741   62.1761 H           1 E12       0.0814
     67 H31         2.2955   59.8849   70.0678 H           1 E12       0.0267
     68 H32         2.9044   58.8453   68.7869 H           1 E12       0.0267
     69 H33         4.8480   60.1057   68.5061 H           1 E12       0.0265
     70 H34         5.0246   60.4341   70.2139 H           1 E12       0.0265
     71 H35         4.6306   62.5354   69.5302 H           1 E12       0.0265
     72 H36         2.9950   62.0886   69.9727 H           1 E12       0.0265
     73 H37         2.2851   61.9790   67.6811 H           1 E12       0.0265
     74 H38         3.9380   61.7410   67.1179 H           1 E12       0.0265
     75 H39         4.4415   64.1627   67.8925 H           1 E12       0.0265
     76 H40         2.7209   64.3384   68.1878 H           1 E12       0.0265
     77 H41         3.0379   65.3350   66.1001 H           1 E12       0.0265
     78 H42         2.4070   63.7474   65.6550 H           1 E12       0.0265
     79 H43         4.7131   62.9522   65.1554 H           1 E12       0.0265
     80 H44         5.3833   64.4964   65.6818 H           1 E12       0.0265
     81 H45         3.5184   64.1689   63.2776 H           1 E12       0.0267
     82 H46         5.2778   64.0710   63.1983 H           1 E12       0.0267
     83 H47         5.0886   66.5029   64.4111 H           1 E12       0.0317
     84 H48         3.4976   66.4401   63.6360 H           1 E12       0.0317
@<TRIPOS>BOND
     1     1     9   1
     2     1     3   2
     3     1     2  am
     4     2    15   1
     5    15    10   1
     6    15     4   2
     7     4    11   1
     8     4     5   1
     9     5     9   2
    10    11     7   1
    11    11    12   1
    12    12     6   1
    13     6    10   1
    14     7     8   1
    15     8    13   1
    16    13    28   1
    17    28    29   1
    18    29    30   1
    19    30    31   1
    20    31    32   1
    21    32    33   1
    22    33    34   1
    23    34    35   1
    24    35    36   1
    25    36    27   1
    26    27    26   1
    27    26    23   1
    28    23    24   1
    29    23    18   1
    30    18    19   1
    31    18    17   2
    32    17    22   1
    33    17    16   1
    34    16    14  am
    35    14    20   1
    36    14    21   2
    37    20    19   2
    38    22    25   1
    39    25    24   1
    40     2    37   1
    41     5    38   1
    42     6    39   1
    43     6    40   1
    44     7    41   1
    45     7    42   1
    46     8    43   1
    47     8    44   1
    48     9    45   1
    49    10    46   1
    50    10    47   1
    51    11    48   1
    52    12    49   1
    53    12    50   1
    54    13    51   1
    55    13    52   1
    56    16    53   1
    57    19    54   1
    58    20    55   1
    59    22    56   1
    60    22    57   1
    61    23    58   1
    62    24    59   1
    63    24    60   1
    64    25    61   1
    65    25    62   1
    66    26    63   1
    67    26    64   1
    68    27    65   1
    69    27    66   1
    70    28    67   1
    71    28    68   1
    72    29    69   1
    73    29    70   1
    74    30    71   1
    75    30    72   1
    76    31    73   1
    77    31    74   1
    78    32    75   1
    79    32    76   1
    80    33    77   1
    81    33    78   1
    82    34    79   1
    83    34    80   1
    84    35    81   1
    85    35    82   1
    86    36    83   1
    87    36    84   1
@<TRIPOS>SUBSTRUCTURE
     1  E12      1

