@<TRIPOS>MOLECULE
1h23_ligand_046
    84    87
SMALL
GAST_HUCK
****
This file was generated by PARSER (from files_GN.cpp)

@<TRIPOS>ATOM
      1 C1          2.2543   69.9560   69.3461 C.2         1 E12       0.1811
      2 N2          1.1099   70.3407   68.7868 N.am        1 E12      -0.2230
      3 O7          3.0701   70.7923   69.7057 O.2         1 E12      -0.4310
      4 C4          0.3558   68.1231   68.5638 C.2         1 E12       0.0225
      5 C5          1.5981   67.7354   69.0331 C.2         1 E12      -0.0779
      6 C14        -1.5963   69.0501   66.6798 C.3         1 E12      -0.0310
      7 N17        -1.1989   66.1684   69.1382 N.4         1 E12       0.2346
      8 C24        -0.4443   65.4311   70.1935 C.3         1 E12      -0.0329
      9 C6          2.5129   68.6263   69.4686 C.2         1 E12      -0.0278
     10 C9         -1.0136   70.0168   67.7366 C.3         1 E12       0.0189
     11 C10        -0.6142   67.0909   68.1073 C.3         1 E12      -0.0032
     12 C13        -1.8606   67.6863   67.3558 C.3         1 E12      -0.0041
     13 C63        -0.6976   63.8986   70.2271 C.3         1 E12      -0.0126
     14 C29         2.6178   68.2541   60.8438 C.2         1 E12       0.1811
     15 C3          0.1646   69.4638   68.3814 C.2         1 E12       0.0883
     16 N30         3.9180   68.0242   61.0279 N.am        1 E12      -0.2230
     17 C31         4.4873   68.0354   62.2551 C.2         1 E12       0.0883
     18 C32         3.7145   68.2242   63.3646 C.2         1 E12       0.0225
     19 C33         2.3755   68.5025   63.1555 C.2         1 E12      -0.0779
     20 C34         1.8283   68.5147   61.9207 C.2         1 E12      -0.0278
     21 O35         2.1588   68.2313   59.7156 O.2         1 E12      -0.4310
     22 C36         5.9316   67.8775   62.2960 C.3         1 E12       0.0189
     23 C37         4.2794   68.3285   64.7284 C.3         1 E12      -0.0032
     24 C38         5.8122   68.0330   64.8183 C.3         1 E12      -0.0041
     25 C39         6.5701   68.5025   63.5559 C.3         1 E12      -0.0310
     26 N40         3.4633   67.6153   65.7695 N.4         1 E12       0.2346
     27 C41         3.8112   66.2563   66.2670 C.3         1 E12      -0.0329
     28 C64        -0.3235   63.2316   71.5959 C.3         1 E12      -0.0483
     29 C65         0.5211   61.9255   71.5541 C.3         1 E12      -0.0529
     30 C66         1.8830   61.9889   70.8029 C.3         1 E12      -0.0531
     31 C67         2.8547   63.1303   71.2311 C.3         1 E12      -0.0531
     32 C68         3.9935   63.3605   70.1985 C.3         1 E12      -0.0531
     33 C69         4.7811   64.6811   70.4206 C.3         1 E12      -0.0531
     34 C70         5.9167   64.9359   69.3858 C.3         1 E12      -0.0529
     35 C71         5.5064   65.0410   67.8821 C.3         1 E12      -0.0483
     36 C72         4.7180   66.3328   67.5324 C.3         1 E12      -0.0126
     37 H1          0.9486   71.2849   68.6671 H           1 E12       0.2526
     38 H2          1.8754   66.7844   68.9645 H           1 E12       0.0600
     39 H3         -2.5295   69.4522   66.2780 H           1 E12       0.0298
     40 H4         -0.8914   68.9275   65.8525 H           1 E12       0.0298
     41 H5         -1.7365   65.4688   68.6208 H           1 E12       0.2022
     42 H6         -1.8837   66.7249   69.6527 H           1 E12       0.2022
     43 H7         -0.7655   65.8596   71.1440 H           1 E12       0.0814
     44 H8          0.6307   65.5683   70.1226 H           1 E12       0.0814
     45 H9          3.3915   68.3188   69.8223 H           1 E12       0.0298
     46 H10        -0.7815   70.9638   67.2434 H           1 E12       0.0511
     47 H11        -1.7638   70.2261   68.5015 H           1 E12       0.0511
     48 H12        -0.0820   66.4696   67.3735 H           1 E12       0.0913
     49 H13        -2.6835   67.8406   68.0626 H           1 E12       0.0333
     50 H14        -2.2175   66.9703   66.6074 H           1 E12       0.0333
     51 H15        -0.1492   63.4308   69.4101 H           1 E12       0.0317
     52 H16        -1.7499   63.6995   70.0244 H           1 E12       0.0317
     53 H17         4.4802   67.8773   60.2510 H           1 E12       0.2526
     54 H18         1.7894   68.7376   63.9245 H           1 E12       0.0600
     55 H19         0.8683   68.7474   61.8049 H           1 E12       0.0298
     56 H20         6.3887   68.3663   61.4343 H           1 E12       0.0511
     57 H21         6.1711   66.8114   62.2419 H           1 E12       0.0511
     58 H22         4.1766   69.3894   64.9804 H           1 E12       0.0913
     59 H23         5.9956   66.9582   64.9267 H           1 E12       0.0333
     60 H24         6.2320   68.5451   65.6848 H           1 E12       0.0333
     61 H25         6.5306   69.5941   63.4876 H           1 E12       0.0298
     62 H26         7.6130   68.1908   63.6123 H           1 E12       0.0298
     63 H27         3.4137   68.2314   66.5839 H           1 E12       0.2022
     64 H28         2.5074   67.5493   65.4148 H           1 E12       0.2022
     65 H29         2.8727   65.7590   66.5469 H           1 E12       0.0814
     66 H30         4.2784   65.6626   65.4785 H           1 E12       0.0814
     67 H31        -1.2554   63.0009   72.1187 H           1 E12       0.0267
     68 H32         0.1986   63.9440   72.2391 H           1 E12       0.0267
     69 H33        -0.0868   61.1413   71.0915 H           1 E12       0.0265
     70 H34         0.7115   61.6129   72.5870 H           1 E12       0.0265
     71 H35         1.6718   62.0672   69.7347 H           1 E12       0.0265
     72 H36         2.3930   61.0311   70.9526 H           1 E12       0.0265
     73 H37         3.2837   62.8902   72.2068 H           1 E12       0.0265
     74 H38         2.3069   64.0665   71.3320 H           1 E12       0.0265
     75 H39         3.5426   63.3943   69.2060 H           1 E12       0.0265
     76 H40         4.6843   62.5146   70.2328 H           1 E12       0.0265
     77 H41         5.2384   64.6484   71.4124 H           1 E12       0.0265
     78 H42         4.0907   65.5255   70.4134 H           1 E12       0.0265
     79 H43         6.6570   64.1400   69.4887 H           1 E12       0.0265
     80 H44         6.4207   65.8666   69.6597 H           1 E12       0.0265
     81 H45         4.9419   64.1554   67.5865 H           1 E12       0.0267
     82 H46         6.4218   65.0493   67.2824 H           1 E12       0.0267
     83 H47         5.4430   67.1431   67.4283 H           1 E12       0.0317
     84 H48         4.0817   66.5976   68.3719 H           1 E12       0.0317
@<TRIPOS>BOND
     1     1     9   1
     2     1     3   2
     3     1     2  am
     4     2    15   1
     5    15    10   1
     6    15     4   2
     7     4    11   1
     8     4     5   1
     9     5     9   2
    10    11     7   1
    11    11    12   1
    12    12     6   1
    13     6    10   1
    14     7     8   1
    15     8    13   1
    16    13    28   1
    17    28    29   1
    18    29    30   1
    19    30    31   1
    20    31    32   1
    21    32    33   1
    22    33    34   1
    23    34    35   1
    24    35    36   1
    25    36    27   1
    26    27    26   1
    27    26    23   1
    28    23    24   1
    29    23    18   1
    30    18    19   1
    31    18    17   2
    32    17    22   1
    33    17    16   1
    34    16    14  am
    35    14    20   1
    36    14    21   2
    37    20    19   2
    38    22    25   1
    39    25    24   1
    40     2    37   1
    41     5    38   1
    42     6    39   1
    43     6    40   1
    44     7    41   1
    45     7    42   1
    46     8    43   1
    47     8    44   1
    48     9    45   1
    49    10    46   1
    50    10    47   1
    51    11    48   1
    52    12    49   1
    53    12    50   1
    54    13    51   1
    55    13    52   1
    56    16    53   1
    57    19    54   1
    58    20    55   1
    59    22    56   1
    60    22    57   1
    61    23    58   1
    62    24    59   1
    63    24    60   1
    64    25    61   1
    65    25    62   1
    66    26    63   1
    67    26    64   1
    68    27    65   1
    69    27    66   1
    70    28    67   1
    71    28    68   1
    72    29    69   1
    73    29    70   1
    74    30    71   1
    75    30    72   1
    76    31    73   1
    77    31    74   1
    78    32    75   1
    79    32    76   1
    80    33    77   1
    81    33    78   1
    82    34    79   1
    83    34    80   1
    84    35    81   1
    85    35    82   1
    86    36    83   1
    87    36    84   1
@<TRIPOS>SUBSTRUCTURE
     1  E12      1

