@<TRIPOS>MOLECULE
1h23_ligand_038
    84    87
SMALL
GAST_HUCK
****
This file was generated by PARSER (from files_GN.cpp)

@<TRIPOS>ATOM
      1 C1          2.5979   68.2791   60.8203 C.2         1 E12       0.1811
      2 N2          3.9127   68.1914   61.0156 N.am        1 E12      -0.2230
      3 O7          2.1583   68.2622   59.6798 O.2         1 E12      -0.4310
      4 C4          3.6527   68.1147   63.3510 C.2         1 E12       0.0225
      5 C5          2.2970   68.3157   63.1381 C.2         1 E12      -0.0779
      6 C14         6.5015   68.2804   63.7275 C.3         1 E12      -0.0310
      7 N17         3.2955   66.9111   65.4466 N.4         1 E12       0.2346
      8 C24         3.6706   66.3590   66.7752 C.3         1 E12      -0.0329
      9 C6          1.7685   68.3697   61.8983 C.2         1 E12      -0.0278
     10 C9          5.9178   68.1001   62.3064 C.3         1 E12       0.0189
     11 C10         4.1734   67.8854   64.7199 C.3         1 E12      -0.0032
     12 C13         5.6752   67.4478   64.7354 C.3         1 E12      -0.0041
     13 C63         4.0770   67.3603   67.8923 C.3         1 E12      -0.0126
     14 C29         5.2018   60.9817   70.7437 C.2         1 E12       0.1811
     15 C3          4.4614   68.1440   62.2516 C.2         1 E12       0.0883
     16 N30         3.9875   60.4466   70.8384 N.am        1 E12      -0.2230
     17 C31         2.8856   61.1841   71.1011 C.2         1 E12       0.0883
     18 C32         3.0127   62.5249   71.3246 C.2         1 E12       0.0225
     19 C33         4.2732   63.0821   71.1897 C.2         1 E12      -0.0779
     20 C34         5.3571   62.3253   70.9130 C.2         1 E12      -0.0278
     21 O35         6.1586   60.2546   70.5189 O.2         1 E12      -0.4310
     22 C36         1.6265   60.4614   71.2062 C.3         1 E12       0.0189
     23 C37         1.8931   63.3693   71.7822 C.3         1 E12      -0.0032
     24 C38         0.6330   62.5528   72.2224 C.3         1 E12      -0.0041
     25 C39         0.3749   61.3725   71.2603 C.3         1 E12      -0.0310
     26 N40         1.5422   64.3807   70.7433 N.4         1 E12       0.2346
     27 C41         0.8163   65.5945   71.2203 C.3         1 E12      -0.0329
     28 C64         2.9200   68.1930   68.5251 C.3         1 E12      -0.0483
     29 C65         2.4960   69.4318   67.6798 C.3         1 E12      -0.0529
     30 C66         1.3473   70.2818   68.3032 C.3         1 E12      -0.0531
     31 C67        -0.1453   69.9715   67.9331 C.3         1 E12      -0.0531
     32 C68        -0.4606   68.7958   66.9580 C.3         1 E12      -0.0531
     33 C69        -1.7663   68.0238   67.3147 C.3         1 E12      -0.0531
     34 C70        -1.6968   66.9034   68.4168 C.3         1 E12      -0.0529
     35 C71        -0.3850   66.7583   69.2430 C.3         1 E12      -0.0483
     36 C72        -0.5225   65.8262   70.4698 C.3         1 E12      -0.0126
     37 H1          4.5041   68.1377   60.2452 H           1 E12       0.2526
     38 H2          1.6803   68.4259   63.9105 H           1 E12       0.0600
     39 H3          7.5478   67.9682   63.7361 H           1 E12       0.0298
     40 H4          6.4625   69.3360   64.0104 H           1 E12       0.0298
     41 H5          3.1638   66.1087   64.8221 H           1 E12       0.2022
     42 H6          2.3829   67.3547   65.5663 H           1 E12       0.2022
     43 H7          4.4931   65.6501   66.6249 H           1 E12       0.0814
     44 H8          2.8120   65.7756   67.1273 H           1 E12       0.0814
     45 H9          0.7881   68.4966   61.7731 H           1 E12       0.0298
     46 H10         6.3266   68.8943   61.6744 H           1 E12       0.0511
     47 H11         6.2475   67.1399   61.8986 H           1 E12       0.0511
     48 H12         4.1114   68.8452   65.2383 H           1 E12       0.0913
     49 H13         5.7560   66.3878   64.4685 H           1 E12       0.0333
     50 H14         6.0947   67.5779   65.7371 H           1 E12       0.0333
     51 H15         4.8670   68.0120   67.5120 H           1 E12       0.0317
     52 H16         4.5137   66.7574   68.6944 H           1 E12       0.0317
     53 H17         3.8905   59.4876   70.7267 H           1 E12       0.2526
     54 H18         4.4001   64.0604   71.3128 H           1 E12       0.0600
     55 H19         6.2529   62.7477   70.8334 H           1 E12       0.0298
     56 H20         1.6596   59.8468   72.1094 H           1 E12       0.0511
     57 H21         1.5243   59.7909   70.3500 H           1 E12       0.0511
     58 H22         2.2464   63.9049   72.6725 H           1 E12       0.0913
     59 H23        -0.2597   63.1786   72.2603 H           1 E12       0.0333
     60 H24         0.7969   62.1587   73.2286 H           1 E12       0.0333
     61 H25        -0.4917   60.7962   71.5965 H           1 E12       0.0298
     62 H26         0.1579   61.7603   70.2595 H           1 E12       0.0298
     63 H27         2.4049   64.7063   70.3017 H           1 E12       0.2022
     64 H28         0.9843   63.9163   70.0253 H           1 E12       0.2022
     65 H29         0.5953   65.5358   72.2939 H           1 E12       0.0814
     66 H30         1.4727   66.4609   71.0921 H           1 E12       0.0814
     67 H31         3.2822   68.5685   69.4937 H           1 E12       0.0267
     68 H32         2.0685   67.5357   68.7260 H           1 E12       0.0267
     69 H33         2.1953   69.1334   66.6751 H           1 E12       0.0265
     70 H34         3.3743   70.0823   67.5867 H           1 E12       0.0265
     71 H35         1.5418   71.3270   68.0264 H           1 E12       0.0265
     72 H36         1.4513   70.2435   69.3995 H           1 E12       0.0265
     73 H37        -0.5855   70.8732   67.4945 H           1 E12       0.0265
     74 H38        -0.6876   69.8208   68.8705 H           1 E12       0.0265
     75 H39         0.3436   68.0702   66.9153 H           1 E12       0.0265
     76 H40        -0.5589   69.2071   65.9500 H           1 E12       0.0265
     77 H41        -2.1358   67.5649   66.3875 H           1 E12       0.0265
     78 H42        -2.5320   68.7599   67.6033 H           1 E12       0.0265
     79 H43        -1.8826   65.9405   67.9280 H           1 E12       0.0265
     80 H44        -2.5333   67.0596   69.1088 H           1 E12       0.0265
     81 H45        -0.0979   67.7299   69.6310 H           1 E12       0.0267
     82 H46         0.4210   66.3972   68.6037 H           1 E12       0.0267
     83 H47        -0.9364   64.8625   70.1583 H           1 E12       0.0317
     84 H48        -1.2259   66.2891   71.1738 H           1 E12       0.0317
@<TRIPOS>BOND
     1     1     9   1
     2     1     3   2
     3     1     2  am
     4     2    15   1
     5    15    10   1
     6    15     4   2
     7     4    11   1
     8     4     5   1
     9     5     9   2
    10    11     7   1
    11    11    12   1
    12    12     6   1
    13     6    10   1
    14     7     8   1
    15     8    13   1
    16    13    28   1
    17    28    29   1
    18    29    30   1
    19    30    31   1
    20    31    32   1
    21    32    33   1
    22    33    34   1
    23    34    35   1
    24    35    36   1
    25    36    27   1
    26    27    26   1
    27    26    23   1
    28    23    24   1
    29    23    18   1
    30    18    19   1
    31    18    17   2
    32    17    22   1
    33    17    16   1
    34    16    14  am
    35    14    20   1
    36    14    21   2
    37    20    19   2
    38    22    25   1
    39    25    24   1
    40     2    37   1
    41     5    38   1
    42     6    39   1
    43     6    40   1
    44     7    41   1
    45     7    42   1
    46     8    43   1
    47     8    44   1
    48     9    45   1
    49    10    46   1
    50    10    47   1
    51    11    48   1
    52    12    49   1
    53    12    50   1
    54    13    51   1
    55    13    52   1
    56    16    53   1
    57    19    54   1
    58    20    55   1
    59    22    56   1
    60    22    57   1
    61    23    58   1
    62    24    59   1
    63    24    60   1
    64    25    61   1
    65    25    62   1
    66    26    63   1
    67    26    64   1
    68    27    65   1
    69    27    66   1
    70    28    67   1
    71    28    68   1
    72    29    69   1
    73    29    70   1
    74    30    71   1
    75    30    72   1
    76    31    73   1
    77    31    74   1
    78    32    75   1
    79    32    76   1
    80    33    77   1
    81    33    78   1
    82    34    79   1
    83    34    80   1
    84    35    81   1
    85    35    82   1
    86    36    83   1
    87    36    84   1
@<TRIPOS>SUBSTRUCTURE
     1  E12      1

