@<TRIPOS>MOLECULE
1h23_ligand_083
    84    87
SMALL
GAST_HUCK
****
This file was generated by PARSER (from files_GN.cpp)

@<TRIPOS>ATOM
      1 C1          1.4416   55.9417   73.6000 C.2         1 E12       0.1811
      2 N2          0.7317   57.0011   73.2084 N.am        1 E12      -0.2230
      3 O7          0.9602   54.8240   73.4869 O.2         1 E12      -0.4310
      4 C4          2.4423   58.4817   73.8344 C.2         1 E12       0.0225
      5 C5          3.1663   57.3811   74.2525 C.2         1 E12      -0.0779
      6 C14         0.6050   60.6957   73.6336 C.3         1 E12      -0.0310
      7 N17         4.3927   60.0031   73.5063 N.4         1 E12       0.2346
      8 C24         4.6622   59.7624   72.0586 C.3         1 E12      -0.0329
      9 C6          2.6783   56.1298   74.1396 C.2         1 E12      -0.0278
     10 C9          0.2856   59.3453   72.9416 C.3         1 E12       0.0189
     11 C10         3.0012   59.8382   74.0153 C.3         1 E12      -0.0032
     12 C13         2.1113   61.0102   73.4814 C.3         1 E12      -0.0041
     13 C63         5.5872   60.8626   71.4701 C.3         1 E12      -0.0126
     14 C29         2.3797   69.0070   65.9117 C.2         1 E12       0.1811
     15 C3          1.1912   58.2672   73.3347 C.2         1 E12       0.0883
     16 N30         1.7141   68.9048   64.7612 N.am        1 E12      -0.2230
     17 C31         2.3310   68.9615   63.5601 C.2         1 E12       0.0883
     18 C32         3.6864   69.0976   63.5079 C.2         1 E12       0.0225
     19 C33         4.3628   69.2723   64.7049 C.2         1 E12      -0.0779
     20 C34         3.7313   69.1771   65.8914 C.2         1 E12      -0.0278
     21 O35         1.7625   68.9494   66.9652 O.2         1 E12      -0.4310
     22 C36         1.4887   68.8484   62.3738 C.3         1 E12       0.0189
     23 C37         4.4490   69.0558   62.2450 C.3         1 E12      -0.0032
     24 C38         3.5796   69.0909   60.9476 C.3         1 E12      -0.0041
     25 C39         2.2367   68.3453   61.1148 C.3         1 E12      -0.0310
     26 N40         5.4941   67.9887   62.2206 N.4         1 E12       0.2346
     27 C41         5.1699   66.5383   62.2786 C.3         1 E12      -0.0329
     28 C64         5.0623   62.3272   71.6568 C.3         1 E12      -0.0483
     29 C65         4.5772   63.0365   70.3560 C.3         1 E12      -0.0529
     30 C66         3.3462   62.3918   69.6569 C.3         1 E12      -0.0531
     31 C67         3.3153   62.5743   68.1118 C.3         1 E12      -0.0531
     32 C68         3.5170   64.0427   67.6307 C.3         1 E12      -0.0531
     33 C69         3.2332   64.2654   66.1152 C.3         1 E12      -0.0531
     34 C70         4.4845   64.0611   65.2104 C.3         1 E12      -0.0529
     35 C71         4.3287   64.5508   63.7404 C.3         1 E12      -0.0483
     36 C72         4.4545   66.0926   63.5854 C.3         1 E12      -0.0126
     37 H1         -0.1544   56.8569   72.8396 H           1 E12       0.2526
     38 H2          4.0641   57.5039   74.6597 H           1 E12       0.0600
     39 H3          0.0047   61.4927   73.1802 H           1 E12       0.0298
     40 H4          0.3424   60.6376   74.6977 H           1 E12       0.0298
     41 H5          4.9934   59.3647   74.0375 H           1 E12       0.2022
     42 H6          4.6796   60.9598   73.7365 H           1 E12       0.2022
     43 H7          3.7356   59.7131   71.4789 H           1 E12       0.0814
     44 H8          5.1706   58.7939   71.9640 H           1 E12       0.0814
     45 H9          3.2101   55.3545   74.4594 H           1 E12       0.0298
     46 H10        -0.7510   59.0798   73.1824 H           1 E12       0.0511
     47 H11         0.3487   59.4663   71.8566 H           1 E12       0.0511
     48 H12         3.0633   59.9814   75.1013 H           1 E12       0.0913
     49 H13         2.3085   61.1973   72.4212 H           1 E12       0.0333
     50 H14         2.3468   61.9296   74.0292 H           1 E12       0.0333
     51 H15         5.7447   60.6566   70.4065 H           1 E12       0.0317
     52 H16         6.5661   60.7699   71.9594 H           1 E12       0.0317
     53 H17         0.7467   68.8215   64.7901 H           1 E12       0.2526
     54 H18         5.3427   69.4203   64.7042 H           1 E12       0.0600
     55 H19         4.2383   69.2917   66.7398 H           1 E12       0.0298
     56 H20         1.0678   69.8404   62.1805 H           1 E12       0.0511
     57 H21         0.6569   68.1586   62.5651 H           1 E12       0.0511
     58 H22         5.0307   69.9856   62.2163 H           1 E12       0.0913
     59 H23         4.1304   68.6648   60.1073 H           1 E12       0.0333
     60 H24         3.3604   70.1347   60.6978 H           1 E12       0.0333
     61 H25         1.6121   68.5031   60.2350 H           1 E12       0.0298
     62 H26         2.4195   67.2773   61.2063 H           1 E12       0.0298
     63 H27         6.0146   68.1125   61.3510 H           1 E12       0.2022
     64 H28         6.1446   68.1825   62.9818 H           1 E12       0.2022
     65 H29         4.5875   66.2435   61.4013 H           1 E12       0.0814
     66 H30         6.1350   66.0190   62.2311 H           1 E12       0.0814
     67 H31         5.8908   62.9240   72.0594 H           1 E12       0.0267
     68 H32         4.2517   62.3581   72.3953 H           1 E12       0.0267
     69 H33         5.4203   63.0790   69.6589 H           1 E12       0.0265
     70 H34         4.3152   64.0660   70.6282 H           1 E12       0.0265
     71 H35         2.4286   62.8088   70.0909 H           1 E12       0.0265
     72 H36         3.3407   61.3148   69.8479 H           1 E12       0.0265
     73 H37         2.3449   62.2161   67.7488 H           1 E12       0.0265
     74 H38         4.0927   61.9374   67.6692 H           1 E12       0.0265
     75 H39         4.5401   64.3675   67.8466 H           1 E12       0.0265
     76 H40         2.8454   64.6872   68.2122 H           1 E12       0.0265
     77 H41         2.8699   65.2925   66.0027 H           1 E12       0.0265
     78 H42         2.4360   63.5870   65.7914 H           1 E12       0.0265
     79 H43         4.7280   62.9976   65.1910 H           1 E12       0.0265
     80 H44         5.3361   64.5857   65.6550 H           1 E12       0.0265
     81 H45         3.3661   64.2106   63.3455 H           1 E12       0.0267
     82 H46         5.1171   64.0595   63.1581 H           1 E12       0.0267
     83 H47         5.0234   66.4975   64.4287 H           1 E12       0.0317
     84 H48         3.4453   66.5113   63.6002 H           1 E12       0.0317
@<TRIPOS>BOND
     1     1     9   1
     2     1     3   2
     3     1     2  am
     4     2    15   1
     5    15    10   1
     6    15     4   2
     7     4    11   1
     8     4     5   1
     9     5     9   2
    10    11     7   1
    11    11    12   1
    12    12     6   1
    13     6    10   1
    14     7     8   1
    15     8    13   1
    16    13    28   1
    17    28    29   1
    18    29    30   1
    19    30    31   1
    20    31    32   1
    21    32    33   1
    22    33    34   1
    23    34    35   1
    24    35    36   1
    25    36    27   1
    26    27    26   1
    27    26    23   1
    28    23    24   1
    29    23    18   1
    30    18    19   1
    31    18    17   2
    32    17    22   1
    33    17    16   1
    34    16    14  am
    35    14    20   1
    36    14    21   2
    37    20    19   2
    38    22    25   1
    39    25    24   1
    40     2    37   1
    41     5    38   1
    42     6    39   1
    43     6    40   1
    44     7    41   1
    45     7    42   1
    46     8    43   1
    47     8    44   1
    48     9    45   1
    49    10    46   1
    50    10    47   1
    51    11    48   1
    52    12    49   1
    53    12    50   1
    54    13    51   1
    55    13    52   1
    56    16    53   1
    57    19    54   1
    58    20    55   1
    59    22    56   1
    60    22    57   1
    61    23    58   1
    62    24    59   1
    63    24    60   1
    64    25    61   1
    65    25    62   1
    66    26    63   1
    67    26    64   1
    68    27    65   1
    69    27    66   1
    70    28    67   1
    71    28    68   1
    72    29    69   1
    73    29    70   1
    74    30    71   1
    75    30    72   1
    76    31    73   1
    77    31    74   1
    78    32    75   1
    79    32    76   1
    80    33    77   1
    81    33    78   1
    82    34    79   1
    83    34    80   1
    84    35    81   1
    85    35    82   1
    86    36    83   1
    87    36    84   1
@<TRIPOS>SUBSTRUCTURE
     1  E12      1

