@<TRIPOS>MOLECULE
1h23_ligand_084
    84    87
SMALL
GAST_HUCK
****
This file was generated by PARSER (from files_GN.cpp)

@<TRIPOS>ATOM
      1 C1         -2.2818   66.2619   75.6863 C.2         1 E12       0.1811
      2 N2         -2.0725   65.5697   76.8010 N.am        1 E12      -0.2230
      3 O7         -3.1426   67.1290   75.6646 O.2         1 E12      -0.4310
      4 C4         -0.4382   64.2205   75.7764 C.2         1 E12       0.0225
      5 C5         -0.6562   64.9584   74.6247 C.2         1 E12      -0.0779
      6 C14        -0.3707   62.4980   78.1070 C.3         1 E12      -0.0310
      7 N17         1.8455   63.4648   75.1446 N.4         1 E12       0.2346
      8 C24         2.1080   62.9841   73.7630 C.3         1 E12      -0.0329
      9 C6         -1.5515   65.9619   74.5729 C.2         1 E12      -0.0278
     10 C9         -1.1266   63.8470   78.1513 C.3         1 E12       0.0189
     11 C10         0.5473   63.1154   75.7996 C.3         1 E12      -0.0032
     12 C13         0.9015   62.6447   77.2449 C.3         1 E12      -0.0041
     13 C63         2.8621   61.6323   73.7427 C.3         1 E12      -0.0126
     14 C29         2.5363   68.4732   60.7013 C.2         1 E12       0.1811
     15 C3         -1.2031   64.5377   76.8721 C.2         1 E12       0.0883
     16 N30         3.8295   68.2572   60.9323 N.am        1 E12      -0.2230
     17 C31         4.3729   68.3665   62.1624 C.2         1 E12       0.0883
     18 C32         3.5706   68.6245   63.2364 C.2         1 E12       0.0225
     19 C33         2.2610   68.9793   62.9646 C.2         1 E12      -0.0779
     20 C34         1.7368   68.8844   61.7247 C.2         1 E12      -0.0278
     21 O35         2.0951   68.3473   59.5704 O.2         1 E12      -0.4310
     22 C36         5.8175   68.1940   62.2405 C.3         1 E12       0.0189
     23 C37         4.0843   68.6305   64.6284 C.3         1 E12      -0.0032
     24 C38         5.5291   68.0454   64.7487 C.3         1 E12      -0.0041
     25 C39         6.4342   68.5549   63.6110 C.3         1 E12      -0.0310
     26 N40         3.2534   67.8607   65.6137 N.4         1 E12       0.2346
     27 C41         2.2496   68.6018   66.4213 C.3         1 E12      -0.0329
     28 C64         3.2503   61.1252   72.3233 C.3         1 E12      -0.0483
     29 C65         4.3546   61.9463   71.5836 C.3         1 E12      -0.0529
     30 C66         3.8330   62.9491   70.5115 C.3         1 E12      -0.0531
     31 C67         4.9620   63.7612   69.8029 C.3         1 E12      -0.0531
     32 C68         5.3126   65.1588   70.3928 C.3         1 E12      -0.0531
     33 C69         4.2300   66.2712   70.2866 C.3         1 E12      -0.0531
     34 C70         3.6937   66.5821   68.8546 C.3         1 E12      -0.0529
     35 C71         2.6048   67.6905   68.8754 C.3         1 E12      -0.0483
     36 C72         1.6974   67.7838   67.6154 C.3         1 E12      -0.0126
     37 H1         -2.5848   65.8005   77.5942 H           1 E12       0.2526
     38 H2         -0.1337   64.7649   73.8027 H           1 E12       0.0600
     39 H3         -0.0970   62.1926   79.1203 H           1 E12       0.0298
     40 H4         -1.0165   61.7247   77.6796 H           1 E12       0.0298
     41 H5          2.6146   63.1179   75.7235 H           1 E12       0.2022
     42 H6          1.9164   64.4823   75.1430 H           1 E12       0.2022
     43 H7          2.7331   63.7366   73.2874 H           1 E12       0.0814
     44 H8          1.1831   62.8973   73.1857 H           1 E12       0.0814
     45 H9         -1.6788   66.4807   73.7332 H           1 E12       0.0298
     46 H10        -2.1362   63.6511   78.5291 H           1 E12       0.0511
     47 H11        -0.6313   64.5153   78.8613 H           1 E12       0.0511
     48 H12         0.0928   62.2604   75.2819 H           1 E12       0.0913
     49 H13         1.5561   63.3825   77.7187 H           1 E12       0.0333
     50 H14         1.4348   61.6917   77.2070 H           1 E12       0.0333
     51 H15         2.2228   60.8823   74.2175 H           1 E12       0.0317
     52 H16         3.7717   61.7143   74.3443 H           1 E12       0.0317
     53 H17         4.4046   68.0216   60.1892 H           1 E12       0.2526
     54 H18         1.7003   69.3979   63.6661 H           1 E12       0.0600
     55 H19         0.8005   69.1803   61.5529 H           1 E12       0.0298
     56 H20         6.2965   68.8322   61.4943 H           1 E12       0.0511
     57 H21         6.0556   67.1562   61.9976 H           1 E12       0.0511
     58 H22         4.1413   69.6821   64.9412 H           1 E12       0.0913
     59 H23         5.4995   66.9516   64.7057 H           1 E12       0.0333
     60 H24         5.9578   68.3299   65.7131 H           1 E12       0.0333
     61 H25         6.5441   69.6401   63.6991 H           1 E12       0.0298
     62 H26         7.4235   68.1022   63.6992 H           1 E12       0.0298
     63 H27         2.7876   67.0981   65.1174 H           1 E12       0.2022
     64 H28         3.8966   67.4359   66.2838 H           1 E12       0.2022
     65 H29         2.6818   69.5370   66.7902 H           1 E12       0.0814
     66 H30         1.4032   68.8506   65.7835 H           1 E12       0.0814
     67 H31         2.3521   61.0670   71.7008 H           1 E12       0.0267
     68 H32         3.6181   60.0995   72.4486 H           1 E12       0.0267
     69 H33         4.9951   61.2266   71.0602 H           1 E12       0.0265
     70 H34         4.9866   62.4681   72.3088 H           1 E12       0.0265
     71 H35         3.1055   63.6310   70.9584 H           1 E12       0.0265
     72 H36         3.3082   62.3612   69.7495 H           1 E12       0.0265
     73 H37         4.6980   63.9000   68.7547 H           1 E12       0.0265
     74 H38         5.8815   63.1719   69.7985 H           1 E12       0.0265
     75 H39         6.2150   65.5249   69.8851 H           1 E12       0.0265
     76 H40         5.5650   65.0290   71.4514 H           1 E12       0.0265
     77 H41         4.6658   67.1951   70.6807 H           1 E12       0.0265
     78 H42         3.3960   65.9968   70.9408 H           1 E12       0.0265
     79 H43         3.2533   65.6758   68.4347 H           1 E12       0.0265
     80 H44         4.5235   66.8949   68.2110 H           1 E12       0.0265
     81 H45         3.0764   68.6596   69.0659 H           1 E12       0.0267
     82 H46         1.9475   67.4942   69.7242 H           1 E12       0.0267
     83 H47         0.7757   68.2840   67.9190 H           1 E12       0.0317
     84 H48         1.4121   66.7829   67.2799 H           1 E12       0.0317
@<TRIPOS>BOND
     1     1     9   1
     2     1     3   2
     3     1     2  am
     4     2    15   1
     5    15    10   1
     6    15     4   2
     7     4    11   1
     8     4     5   1
     9     5     9   2
    10    11     7   1
    11    11    12   1
    12    12     6   1
    13     6    10   1
    14     7     8   1
    15     8    13   1
    16    13    28   1
    17    28    29   1
    18    29    30   1
    19    30    31   1
    20    31    32   1
    21    32    33   1
    22    33    34   1
    23    34    35   1
    24    35    36   1
    25    36    27   1
    26    27    26   1
    27    26    23   1
    28    23    24   1
    29    23    18   1
    30    18    19   1
    31    18    17   2
    32    17    22   1
    33    17    16   1
    34    16    14  am
    35    14    20   1
    36    14    21   2
    37    20    19   2
    38    22    25   1
    39    25    24   1
    40     2    37   1
    41     5    38   1
    42     6    39   1
    43     6    40   1
    44     7    41   1
    45     7    42   1
    46     8    43   1
    47     8    44   1
    48     9    45   1
    49    10    46   1
    50    10    47   1
    51    11    48   1
    52    12    49   1
    53    12    50   1
    54    13    51   1
    55    13    52   1
    56    16    53   1
    57    19    54   1
    58    20    55   1
    59    22    56   1
    60    22    57   1
    61    23    58   1
    62    24    59   1
    63    24    60   1
    64    25    61   1
    65    25    62   1
    66    26    63   1
    67    26    64   1
    68    27    65   1
    69    27    66   1
    70    28    67   1
    71    28    68   1
    72    29    69   1
    73    29    70   1
    74    30    71   1
    75    30    72   1
    76    31    73   1
    77    31    74   1
    78    32    75   1
    79    32    76   1
    80    33    77   1
    81    33    78   1
    82    34    79   1
    83    34    80   1
    84    35    81   1
    85    35    82   1
    86    36    83   1
    87    36    84   1
@<TRIPOS>SUBSTRUCTURE
     1  E12      1

