@<TRIPOS>MOLECULE
1h23_ligand_011
    84    87
SMALL
GAST_HUCK
****
This file was generated by PARSER (from files_GN.cpp)

@<TRIPOS>ATOM
      1 C1          3.9058   57.5138   70.8813 C.2         1 E12       0.1811
      2 N2          3.8351   57.8399   72.1705 N.am        1 E12      -0.2230
      3 O7          4.4307   56.4561   70.5595 O.2         1 E12      -0.4310
      4 C4          2.6948   59.8421   71.6997 C.2         1 E12       0.0225
      5 C5          2.8160   59.5154   70.3569 C.2         1 E12      -0.0779
      6 C14         3.1989   60.7756   74.3797 C.3         1 E12      -0.0310
      7 N17         0.7662   61.3396   71.4353 N.4         1 E12       0.2346
      8 C24         0.1180   62.6762   71.4821 C.3         1 E12      -0.0329
      9 C6          3.3914   58.3664   69.9501 C.2         1 E12      -0.0278
     10 C9          3.3635   59.2766   74.0304 C.3         1 E12       0.0189
     11 C10         2.1006   61.1411   72.0867 C.3         1 E12      -0.0032
     12 C13         1.9793   61.3531   73.6295 C.3         1 E12      -0.0041
     13 C63         0.9485   63.8045   70.8162 C.3         1 E12      -0.0126
     14 C29         4.1523   64.0653   65.1516 C.2         1 E12       0.1811
     15 C3          3.2856   59.0029   72.5999 C.2         1 E12       0.0883
     16 N30         4.5222   65.2543   65.6158 N.am        1 E12      -0.2230
     17 C31         4.8321   66.2840   64.7982 C.2         1 E12       0.0883
     18 C32         4.7580   66.1310   63.4432 C.2         1 E12       0.0225
     19 C33         4.3831   64.8811   62.9754 C.2         1 E12      -0.0779
     20 C34         4.0849   63.8642   63.8064 C.2         1 E12      -0.0278
     21 O35         3.9028   63.1735   65.9437 O.2         1 E12      -0.4310
     22 C36         5.2459   67.5320   65.4254 C.3         1 E12       0.0189
     23 C37         5.1689   67.1953   62.4981 C.3         1 E12      -0.0032
     24 C38         5.6834   68.5251   63.1532 C.3         1 E12      -0.0041
     25 C39         6.2702   68.3133   64.5685 C.3         1 E12      -0.0310
     26 N40         4.2063   67.3902   61.3533 N.4         1 E12       0.2346
     27 C41         3.2945   68.5616   61.1760 C.3         1 E12      -0.0329
     28 C64         0.1756   65.1450   70.6649 C.3         1 E12      -0.0483
     29 C65         1.1028   66.3636   70.3934 C.3         1 E12      -0.0529
     30 C66         1.6515   66.4769   68.9432 C.3         1 E12      -0.0531
     31 C67         0.6575   67.1307   67.9466 C.3         1 E12      -0.0531
     32 C68         1.1072   67.0235   66.4613 C.3         1 E12      -0.0531
     33 C69         0.4424   68.1087   65.5725 C.3         1 E12      -0.0531
     34 C70         0.6137   67.9214   64.0399 C.3         1 E12      -0.0529
     35 C71         1.9316   68.4701   63.4432 C.3         1 E12      -0.0483
     36 C72         1.9193   68.5006   61.8934 C.3         1 E12      -0.0126
     37 H1          4.2377   57.2367   72.8168 H           1 E12       0.2526
     38 H2          2.4872   60.1426   69.6594 H           1 E12       0.0600
     39 H3          3.0649   60.8930   75.4577 H           1 E12       0.0298
     40 H4          4.0990   61.3241   74.0859 H           1 E12       0.0298
     41 H5          0.1159   60.6631   71.8442 H           1 E12       0.2022
     42 H6          0.8561   61.1076   70.4465 H           1 E12       0.2022
     43 H7         -0.1112   62.9420   72.5158 H           1 E12       0.0814
     44 H8         -0.8329   62.5828   70.9562 H           1 E12       0.0814
     45 H9          3.4702   58.1694   68.9785 H           1 E12       0.0298
     46 H10         4.3330   58.9495   74.4175 H           1 E12       0.0511
     47 H11         2.5872   58.6962   74.5389 H           1 E12       0.0511
     48 H12         2.7946   61.8966   71.7062 H           1 E12       0.0913
     49 H13         1.0750   60.8622   74.0010 H           1 E12       0.0333
     50 H14         1.9011   62.4199   73.8551 H           1 E12       0.0333
     51 H15         1.2810   63.4681   69.8311 H           1 E12       0.0317
     52 H16         1.8314   63.9700   71.4339 H           1 E12       0.0317
     53 H17         4.5892   65.3864   66.5754 H           1 E12       0.2526
     54 H18         4.3797   64.6961   62.0017 H           1 E12       0.0600
     55 H19         3.8339   62.9733   63.4452 H           1 E12       0.0298
     56 H20         5.6876   67.3565   66.4060 H           1 E12       0.0511
     57 H21         4.3676   68.1555   65.5799 H           1 E12       0.0511
     58 H22         6.0574   66.7612   62.0194 H           1 E12       0.0913
     59 H23         4.8646   69.2350   63.2764 H           1 E12       0.0333
     60 H24         6.4312   68.9886   62.5013 H           1 E12       0.0333
     61 H25         7.2085   67.7611   64.5000 H           1 E12       0.0298
     62 H26         6.4743   69.2896   65.0174 H           1 E12       0.0298
     63 H27         4.8036   67.4078   60.5196 H           1 E12       0.2022
     64 H28         3.6165   66.5507   61.2785 H           1 E12       0.2022
     65 H29         3.7939   69.5080   61.3890 H           1 E12       0.0814
     66 H30         3.0702   68.5861   60.1041 H           1 E12       0.0814
     67 H31        -0.3696   65.3408   71.5906 H           1 E12       0.0267
     68 H32        -0.5673   65.0456   69.8698 H           1 E12       0.0267
     69 H33         1.9547   66.3141   71.0753 H           1 E12       0.0265
     70 H34         0.5651   67.2791   70.6432 H           1 E12       0.0265
     71 H35         1.9523   65.4945   68.5830 H           1 E12       0.0265
     72 H36         2.5475   67.1029   68.9648 H           1 E12       0.0265
     73 H37         0.5478   68.1811   68.2249 H           1 E12       0.0265
     74 H38        -0.3293   66.6710   68.0416 H           1 E12       0.0265
     75 H39         0.8479   66.0274   66.0924 H           1 E12       0.0265
     76 H40         2.1899   67.1321   66.3870 H           1 E12       0.0265
     77 H41         0.8317   69.0881   65.8690 H           1 E12       0.0265
     78 H42        -0.6282   68.1130   65.7830 H           1 E12       0.0265
     79 H43        -0.2082   68.4332   63.5391 H           1 E12       0.0265
     80 H44         0.5334   66.8600   63.7866 H           1 E12       0.0265
     81 H45         2.7280   67.8357   63.7937 H           1 E12       0.0267
     82 H46         2.1449   69.4697   63.8131 H           1 E12       0.0267
     83 H47         1.3388   69.3774   61.5901 H           1 E12       0.0317
     84 H48         1.3946   67.6229   61.5143 H           1 E12       0.0317
@<TRIPOS>BOND
     1     1     9   1
     2     1     3   2
     3     1     2  am
     4     2    15   1
     5    15    10   1
     6    15     4   2
     7     4    11   1
     8     4     5   1
     9     5     9   2
    10    11     7   1
    11    11    12   1
    12    12     6   1
    13     6    10   1
    14     7     8   1
    15     8    13   1
    16    13    28   1
    17    28    29   1
    18    29    30   1
    19    30    31   1
    20    31    32   1
    21    32    33   1
    22    33    34   1
    23    34    35   1
    24    35    36   1
    25    36    27   1
    26    27    26   1
    27    26    23   1
    28    23    24   1
    29    23    18   1
    30    18    19   1
    31    18    17   2
    32    17    22   1
    33    17    16   1
    34    16    14  am
    35    14    20   1
    36    14    21   2
    37    20    19   2
    38    22    25   1
    39    25    24   1
    40     2    37   1
    41     5    38   1
    42     6    39   1
    43     6    40   1
    44     7    41   1
    45     7    42   1
    46     8    43   1
    47     8    44   1
    48     9    45   1
    49    10    46   1
    50    10    47   1
    51    11    48   1
    52    12    49   1
    53    12    50   1
    54    13    51   1
    55    13    52   1
    56    16    53   1
    57    19    54   1
    58    20    55   1
    59    22    56   1
    60    22    57   1
    61    23    58   1
    62    24    59   1
    63    24    60   1
    64    25    61   1
    65    25    62   1
    66    26    63   1
    67    26    64   1
    68    27    65   1
    69    27    66   1
    70    28    67   1
    71    28    68   1
    72    29    69   1
    73    29    70   1
    74    30    71   1
    75    30    72   1
    76    31    73   1
    77    31    74   1
    78    32    75   1
    79    32    76   1
    80    33    77   1
    81    33    78   1
    82    34    79   1
    83    34    80   1
    84    35    81   1
    85    35    82   1
    86    36    83   1
    87    36    84   1
@<TRIPOS>SUBSTRUCTURE
     1  E12      1

