@<TRIPOS>MOLECULE
1h23_ligand_055
    84    87
SMALL
GAST_HUCK
****
This file was generated by PARSER (from files_GN.cpp)

@<TRIPOS>ATOM
      1 C1         -2.6577   55.5347   75.2622 C.2         1 E12       0.1811
      2 N2         -3.8690   56.0842   75.2176 N.am        1 E12      -0.2230
      3 O7         -2.5444   54.3177   75.2297 O.2         1 E12      -0.4310
      4 C4         -2.9790   58.2625   75.2469 C.2         1 E12       0.0225
      5 C5         -1.7297   57.6793   75.3691 C.2         1 E12      -0.0779
      6 C14        -5.5747   59.3411   75.7536 C.3         1 E12      -0.0310
      7 N17        -2.2171   60.2356   74.0635 N.4         1 E12       0.2346
      8 C24        -2.3549   61.6368   73.5694 C.3         1 E12      -0.0329
      9 C6         -1.5611   56.3407   75.3599 C.2         1 E12      -0.0278
     10 C9         -5.4355   57.8844   75.2482 C.3         1 E12       0.0189
     11 C10        -3.0970   59.7378   75.1621 C.3         1 E12      -0.0032
     12 C13        -4.5684   60.2457   74.9979 C.3         1 E12      -0.0041
     13 C63        -1.6698   61.8286   72.1792 C.3         1 E12      -0.0126
     14 C29         2.8078   68.3587   60.3387 C.2         1 E12       0.1811
     15 C3         -4.0562   57.4242   75.2411 C.2         1 E12       0.0883
     16 N30         3.9847   68.5896   60.9146 N.am        1 E12      -0.2230
     17 C31         4.1362   68.6717   62.2549 C.2         1 E12       0.0883
     18 C32         3.0498   68.5075   63.0601 C.2         1 E12       0.0225
     19 C33         1.8221   68.2982   62.4530 C.2         1 E12      -0.0779
     20 C34         1.6993   68.2099   61.1131 C.2         1 E12      -0.0278
     21 O35         2.7461   68.2939   59.1229 O.2         1 E12      -0.4310
     22 C36         5.4666   68.9929   62.7582 C.3         1 E12       0.0189
     23 C37         3.1354   68.4958   64.5350 C.3         1 E12      -0.0032
     24 C38         4.5136   68.9394   65.1251 C.3         1 E12      -0.0041
     25 C39         5.7113   68.5551   64.2238 C.3         1 E12      -0.0310
     26 N40         2.6361   67.2094   65.1106 N.4         1 E12       0.2346
     27 C41         3.2476   65.9332   64.6593 C.3         1 E12      -0.0329
     28 C64        -0.6278   62.9838   72.0901 C.3         1 E12      -0.0483
     29 C65        -0.2282   63.3806   70.6307 C.3         1 E12      -0.0529
     30 C66         1.2732   63.7380   70.4204 C.3         1 E12      -0.0531
     31 C67         2.1209   62.5250   69.9472 C.3         1 E12      -0.0531
     32 C68         3.5765   62.8825   69.5288 C.3         1 E12      -0.0531
     33 C69         3.7447   63.6306   68.1699 C.3         1 E12      -0.0531
     34 C70         3.4209   62.7498   66.9254 C.3         1 E12      -0.0529
     35 C71         3.5615   63.4885   65.5640 C.3         1 E12      -0.0483
     36 C72         2.6031   64.7145   65.3846 C.3         1 E12      -0.0126
     37 H1         -4.6421   55.4979   75.1736 H           1 E12       0.2526
     38 H2         -0.9210   58.2503   75.4733 H           1 E12       0.0600
     39 H3         -6.5987   59.6955   75.5986 H           1 E12       0.0298
     40 H4         -5.3602   59.3777   76.8291 H           1 E12       0.0298
     41 H5         -2.3392   59.6199   73.2616 H           1 E12       0.2022
     42 H6         -1.2466   60.1393   74.3758 H           1 E12       0.2022
     43 H7         -1.9493   62.3215   74.3245 H           1 E12       0.0814
     44 H8         -3.4210   61.8630   73.4640 H           1 E12       0.0814
     45 H9         -0.6462   55.9505   75.4429 H           1 E12       0.0298
     46 H10        -6.0407   57.2467   75.9065 H           1 E12       0.0511
     47 H11        -5.8408   57.7949   74.2344 H           1 E12       0.0511
     48 H12        -2.7173   60.1439   76.1022 H           1 E12       0.0913
     49 H13        -4.8514   60.2624   73.9440 H           1 E12       0.0333
     50 H14        -4.6665   61.2554   75.3918 H           1 E12       0.0333
     51 H15        -2.4509   62.0017   71.4328 H           1 E12       0.0317
     52 H16        -1.1597   60.9040   71.8930 H           1 E12       0.0317
     53 H17         4.7691   68.6423   60.3504 H           1 E12       0.2526
     54 H18         0.9992   68.2094   63.0075 H           1 E12       0.0600
     55 H19         0.8118   68.0365   60.7026 H           1 E12       0.0298
     56 H20         5.6065   70.0749   62.6774 H           1 E12       0.0511
     57 H21         6.2273   68.5129   62.1344 H           1 E12       0.0511
     58 H22         2.4168   69.2443   64.8894 H           1 E12       0.0913
     59 H23         4.6570   68.5138   66.1209 H           1 E12       0.0333
     60 H24         4.5160   70.0274   65.2385 H           1 E12       0.0333
     61 H25         6.6207   69.0320   64.6024 H           1 E12       0.0298
     62 H26         5.8713   67.4751   64.2499 H           1 E12       0.0298
     63 H27         2.7555   67.2635   66.1277 H           1 E12       0.2022
     64 H28         1.6280   67.1505   64.9240 H           1 E12       0.2022
     65 H29         3.1260   65.8078   63.5752 H           1 E12       0.0814
     66 H30         4.3109   65.9618   64.9019 H           1 E12       0.0814
     67 H31         0.2556   62.6705   72.6531 H           1 E12       0.0267
     68 H32        -1.0318   63.8731   72.5834 H           1 E12       0.0267
     69 H33        -0.8188   64.2542   70.3372 H           1 E12       0.0265
     70 H34        -0.4937   62.5825   69.9282 H           1 E12       0.0265
     71 H35         1.6967   64.1450   71.3460 H           1 E12       0.0265
     72 H36         1.3317   64.5272   69.6650 H           1 E12       0.0265
     73 H37         1.6129   62.0296   69.1114 H           1 E12       0.0265
     74 H38         2.1737   61.8046   70.7708 H           1 E12       0.0265
     75 H39         4.1514   61.9513   69.4804 H           1 E12       0.0265
     76 H40         4.0150   63.4959   70.3199 H           1 E12       0.0265
     77 H41         4.7891   63.9585   68.1054 H           1 E12       0.0265
     78 H42         3.1258   64.5361   68.1539 H           1 E12       0.0265
     79 H43         2.4080   62.3545   67.0108 H           1 E12       0.0265
     80 H44         4.1133   61.9012   66.9296 H           1 E12       0.0265
     81 H45         3.3523   62.7584   64.7726 H           1 E12       0.0267
     82 H46         4.6092   63.7862   65.4512 H           1 E12       0.0267
     83 H47         2.2531   65.0392   66.3750 H           1 E12       0.0317
     84 H48         1.7163   64.3899   64.8138 H           1 E12       0.0317
@<TRIPOS>BOND
     1     1     9   1
     2     1     3   2
     3     1     2  am
     4     2    15   1
     5    15    10   1
     6    15     4   2
     7     4    11   1
     8     4     5   1
     9     5     9   2
    10    11     7   1
    11    11    12   1
    12    12     6   1
    13     6    10   1
    14     7     8   1
    15     8    13   1
    16    13    28   1
    17    28    29   1
    18    29    30   1
    19    30    31   1
    20    31    32   1
    21    32    33   1
    22    33    34   1
    23    34    35   1
    24    35    36   1
    25    36    27   1
    26    27    26   1
    27    26    23   1
    28    23    24   1
    29    23    18   1
    30    18    19   1
    31    18    17   2
    32    17    22   1
    33    17    16   1
    34    16    14  am
    35    14    20   1
    36    14    21   2
    37    20    19   2
    38    22    25   1
    39    25    24   1
    40     2    37   1
    41     5    38   1
    42     6    39   1
    43     6    40   1
    44     7    41   1
    45     7    42   1
    46     8    43   1
    47     8    44   1
    48     9    45   1
    49    10    46   1
    50    10    47   1
    51    11    48   1
    52    12    49   1
    53    12    50   1
    54    13    51   1
    55    13    52   1
    56    16    53   1
    57    19    54   1
    58    20    55   1
    59    22    56   1
    60    22    57   1
    61    23    58   1
    62    24    59   1
    63    24    60   1
    64    25    61   1
    65    25    62   1
    66    26    63   1
    67    26    64   1
    68    27    65   1
    69    27    66   1
    70    28    67   1
    71    28    68   1
    72    29    69   1
    73    29    70   1
    74    30    71   1
    75    30    72   1
    76    31    73   1
    77    31    74   1
    78    32    75   1
    79    32    76   1
    80    33    77   1
    81    33    78   1
    82    34    79   1
    83    34    80   1
    84    35    81   1
    85    35    82   1
    86    36    83   1
    87    36    84   1
@<TRIPOS>SUBSTRUCTURE
     1  E12      1

