@<TRIPOS>MOLECULE
1h23_ligand_060
    84    87
SMALL
GAST_HUCK
****
This file was generated by PARSER (from files_GN.cpp)

@<TRIPOS>ATOM
      1 C1          3.8872   57.5335   70.8792 C.2         1 E12       0.1811
      2 N2          3.8732   57.7819   72.1876 N.am        1 E12      -0.2230
      3 O7          4.5021   56.5623   70.4624 O.2         1 E12      -0.4310
      4 C4          2.4798   59.6501   71.9139 C.2         1 E12       0.0225
      5 C5          2.5350   59.4090   70.5477 C.2         1 E12      -0.0779
      6 C14         3.0894   60.5241   74.5851 C.3         1 E12      -0.0310
      7 N17         0.3386   60.8393   71.9458 N.4         1 E12       0.2346
      8 C24        -0.2770   62.1434   71.5796 C.3         1 E12      -0.0329
      9 C6          3.2297   58.3749   70.0360 C.2         1 E12      -0.0278
     10 C9          3.3660   59.0628   74.1544 C.3         1 E12       0.0189
     11 C10         1.7579   60.8391   72.4141 C.3         1 E12      -0.0032
     12 C13         1.7571   61.0000   73.9700 C.3         1 E12      -0.0041
     13 C63         0.2731   62.7303   70.2424 C.3         1 E12      -0.0126
     14 C29         0.1705   68.1994   62.9471 C.2         1 E12       0.1811
     15 C3          3.2166   58.8357   72.7220 C.2         1 E12       0.0883
     16 N30         0.8970   68.1086   61.8372 N.am        1 E12      -0.2230
     17 C31         2.2113   68.4253   61.7982 C.2         1 E12       0.0883
     18 C32         2.8332   68.8279   62.9408 C.2         1 E12       0.0225
     19 C33         2.0682   68.9554   64.0876 C.2         1 E12      -0.0779
     20 C34         0.7532   68.6499   64.0951 C.2         1 E12      -0.0278
     21 O35        -1.0139   67.8994   62.9153 O.2         1 E12      -0.4310
     22 C36         2.8824   68.3640   60.5070 C.3         1 E12       0.0189
     23 C37         4.2888   69.1148   62.9882 C.3         1 E12      -0.0032
     24 C38         5.0566   68.9649   61.6314 C.3         1 E12      -0.0041
     25 C39         4.1353   69.2729   60.4306 C.3         1 E12      -0.0310
     26 N40         5.0179   68.3964   64.0788 N.4         1 E12       0.2346
     27 C41         5.0066   66.9096   64.0821 C.3         1 E12      -0.0329
     28 C64         1.2781   63.9119   70.3802 C.3         1 E12      -0.0483
     29 C65         0.6277   65.2959   70.6811 C.3         1 E12      -0.0529
     30 C66         1.5263   66.5432   70.4029 C.3         1 E12      -0.0531
     31 C67         1.6312   66.9748   68.9079 C.3         1 E12      -0.0531
     32 C68         2.8270   66.3447   68.1178 C.3         1 E12      -0.0531
     33 C69         2.5277   66.1174   66.6028 C.3         1 E12      -0.0531
     34 C70         3.2760   64.9117   65.9579 C.3         1 E12      -0.0529
     35 C71         4.8293   65.0017   65.8825 C.3         1 E12      -0.0483
     36 C72         5.4482   66.3686   65.4687 C.3         1 E12      -0.0126
     37 H1          4.3683   57.1958   72.7754 H           1 E12       0.2526
     38 H2          2.0785   60.0246   69.9100 H           1 E12       0.0600
     39 H3          3.0356   60.5893   75.6766 H           1 E12       0.0298
     40 H4          3.8983   61.1756   74.2434 H           1 E12       0.0298
     41 H5         -0.2405   60.4264   72.6794 H           1 E12       0.2022
     42 H6          0.2536   60.2380   71.1292 H           1 E12       0.2022
     43 H7         -0.1877   62.8693   72.3980 H           1 E12       0.0814
     44 H8         -1.3478   61.9511   71.4420 H           1 E12       0.0814
     45 H9          3.2709   58.2393   69.0500 H           1 E12       0.0298
     46 H10         4.3827   58.8176   74.4666 H           1 E12       0.0511
     47 H11         2.6844   58.3940   74.6824 H           1 E12       0.0511
     48 H12         2.2860   61.7028   71.9948 H           1 E12       0.0913
     49 H13         0.9466   60.4097   74.4116 H           1 E12       0.0333
     50 H14         1.5884   62.0490   74.2370 H           1 E12       0.0333
     51 H15        -0.5599   63.0698   69.6178 H           1 E12       0.0317
     52 H16         0.7708   61.9322   69.6870 H           1 E12       0.0317
     53 H17         0.4690   67.7918   61.0302 H           1 E12       0.2526
     54 H18         2.4758   69.2951   64.9255 H           1 E12       0.0600
     55 H19         0.2229   68.7365   64.9321 H           1 E12       0.0298
     56 H20         2.1950   68.6700   59.7161 H           1 E12       0.0511
     57 H21         3.1689   67.3284   60.3144 H           1 E12       0.0511
     58 H22         4.3695   70.1720   63.2523 H           1 E12       0.0913
     59 H23         5.4348   67.9471   61.5157 H           1 E12       0.0333
     60 H24         5.9187   69.6407   61.6096 H           1 E12       0.0333
     61 H25         3.8307   70.3222   60.4569 H           1 E12       0.0298
     62 H26         4.6611   69.0974   59.4899 H           1 E12       0.0298
     63 H27         5.9942   68.7061   64.0787 H           1 E12       0.2022
     64 H28         4.5963   68.7047   64.9612 H           1 E12       0.2022
     65 H29         4.0034   66.5493   63.8490 H           1 E12       0.0814
     66 H30         5.6890   66.5271   63.3160 H           1 E12       0.0814
     67 H31         1.8006   63.9718   69.4231 H           1 E12       0.0267
     68 H32         2.0215   63.6909   71.1543 H           1 E12       0.0267
     69 H33         0.3482   65.3182   71.7388 H           1 E12       0.0265
     70 H34        -0.2935   65.3939   70.0919 H           1 E12       0.0265
     71 H35         2.5239   66.3897   70.8240 H           1 E12       0.0265
     72 H36         1.0725   67.3772   70.9428 H           1 E12       0.0265
     73 H37         1.7444   68.0672   68.8693 H           1 E12       0.0265
     74 H38         0.6749   66.7453   68.4183 H           1 E12       0.0265
     75 H39         3.1284   65.3981   68.5743 H           1 E12       0.0265
     76 H40         3.6864   67.0196   68.2104 H           1 E12       0.0265
     77 H41         2.7720   67.0323   66.0564 H           1 E12       0.0265
     78 H42         1.4582   65.9344   66.4587 H           1 E12       0.0265
     79 H43         2.8764   64.7745   64.9502 H           1 E12       0.0265
     80 H44         3.0109   64.0047   66.5194 H           1 E12       0.0265
     81 H45         5.1723   64.2436   65.1737 H           1 E12       0.0267
     82 H46         5.2295   64.7382   66.8633 H           1 E12       0.0267
     83 H47         6.5398   66.2614   65.4622 H           1 E12       0.0317
     84 H48         5.2077   67.1008   66.2459 H           1 E12       0.0317
@<TRIPOS>BOND
     1     1     9   1
     2     1     3   2
     3     1     2  am
     4     2    15   1
     5    15    10   1
     6    15     4   2
     7     4    11   1
     8     4     5   1
     9     5     9   2
    10    11     7   1
    11    11    12   1
    12    12     6   1
    13     6    10   1
    14     7     8   1
    15     8    13   1
    16    13    28   1
    17    28    29   1
    18    29    30   1
    19    30    31   1
    20    31    32   1
    21    32    33   1
    22    33    34   1
    23    34    35   1
    24    35    36   1
    25    36    27   1
    26    27    26   1
    27    26    23   1
    28    23    24   1
    29    23    18   1
    30    18    19   1
    31    18    17   2
    32    17    22   1
    33    17    16   1
    34    16    14  am
    35    14    20   1
    36    14    21   2
    37    20    19   2
    38    22    25   1
    39    25    24   1
    40     2    37   1
    41     5    38   1
    42     6    39   1
    43     6    40   1
    44     7    41   1
    45     7    42   1
    46     8    43   1
    47     8    44   1
    48     9    45   1
    49    10    46   1
    50    10    47   1
    51    11    48   1
    52    12    49   1
    53    12    50   1
    54    13    51   1
    55    13    52   1
    56    16    53   1
    57    19    54   1
    58    20    55   1
    59    22    56   1
    60    22    57   1
    61    23    58   1
    62    24    59   1
    63    24    60   1
    64    25    61   1
    65    25    62   1
    66    26    63   1
    67    26    64   1
    68    27    65   1
    69    27    66   1
    70    28    67   1
    71    28    68   1
    72    29    69   1
    73    29    70   1
    74    30    71   1
    75    30    72   1
    76    31    73   1
    77    31    74   1
    78    32    75   1
    79    32    76   1
    80    33    77   1
    81    33    78   1
    82    34    79   1
    83    34    80   1
    84    35    81   1
    85    35    82   1
    86    36    83   1
    87    36    84   1
@<TRIPOS>SUBSTRUCTURE
     1  E12      1

