@<TRIPOS>MOLECULE
1h23_ligand_010
    84    87
SMALL
GAST_HUCK
****
This file was generated by PARSER (from files_GN.cpp)

@<TRIPOS>ATOM
      1 C1         -1.1664   59.4289   73.6624 C.2         1 E12       0.1811
      2 N2         -0.2786   60.4159   73.5723 N.am        1 E12      -0.2230
      3 O7         -2.3593   59.6985   73.6602 O.2         1 E12      -0.4310
      4 C4          1.5246   58.9208   73.6600 C.2         1 E12       0.0225
      5 C5          0.5968   57.9018   73.8182 C.2         1 E12      -0.0779
      6 C14         3.3212   61.0877   74.2640 C.3         1 E12      -0.0310
      7 N17         3.3954   57.4694   72.8221 N.4         1 E12       0.2346
      8 C24         3.6943   57.6290   71.3735 C.3         1 E12      -0.0329
      9 C6         -0.7332   58.1475   73.8067 C.2         1 E12      -0.0278
     10 C9          1.9106   61.3801   73.6896 C.3         1 E12       0.0189
     11 C10         2.9715   58.6069   73.7053 C.3         1 E12      -0.0032
     12 C13         3.9224   59.8447   73.5814 C.3         1 E12      -0.0041
     13 C63         2.4700   57.9736   70.4772 C.3         1 E12      -0.0126
     14 C29         2.3224   68.9787   65.7816 C.2         1 E12       0.1811
     15 C3          1.0571   60.1980   73.6282 C.2         1 E12       0.0883
     16 N30         1.6983   68.9044   64.6096 N.am        1 E12      -0.2230
     17 C31         2.3620   68.9451   63.4297 C.2         1 E12       0.0883
     18 C32         3.7196   69.0666   63.4280 C.2         1 E12       0.0225
     19 C33         4.3513   69.2428   64.6483 C.2         1 E12      -0.0779
     20 C34         3.6704   69.1656   65.8142 C.2         1 E12      -0.0278
     21 O35         1.6674   68.8924   66.8137 O.2         1 E12      -0.4310
     22 C36         1.5593   68.8498   62.2192 C.3         1 E12       0.0189
     23 C37         4.5329   68.9488   62.1986 C.3         1 E12      -0.0032
     24 C38         3.7053   69.0223   60.8729 C.3         1 E12      -0.0041
     25 C39         2.3374   68.3167   60.9902 C.3         1 E12      -0.0310
     26 N40         5.5032   67.8077   62.2210 N.4         1 E12       0.2346
     27 C41         5.0784   66.3798   62.2288 C.3         1 E12      -0.0329
     28 C64         2.7435   59.0838   69.4170 C.3         1 E12      -0.0483
     29 C65         2.3610   60.5108   69.9016 C.3         1 E12      -0.0529
     30 C66         2.3322   61.5943   68.7842 C.3         1 E12      -0.0531
     31 C67         3.7285   62.1532   68.3800 C.3         1 E12      -0.0531
     32 C68         3.6642   63.3438   67.3743 C.3         1 E12      -0.0531
     33 C69         3.4171   62.9598   65.8824 C.3         1 E12      -0.0531
     34 C70         3.1298   64.1864   64.9502 C.3         1 E12      -0.0529
     35 C71         4.2000   64.4863   63.8523 C.3         1 E12      -0.0483
     36 C72         4.1697   65.9787   63.4209 C.3         1 E12      -0.0126
     37 H1         -0.6029   61.3258   73.5069 H           1 E12       0.2526
     38 H2          0.8990   56.9714   73.9782 H           1 E12       0.0600
     39 H3          3.9605   61.9539   74.0817 H           1 E12       0.0298
     40 H4          3.2543   60.9191   75.3434 H           1 E12       0.0298
     41 H5          2.6980   56.7289   72.9050 H           1 E12       0.2022
     42 H6          4.2522   57.0905   73.2310 H           1 E12       0.2022
     43 H7          4.0986   56.6685   71.0363 H           1 E12       0.0814
     44 H8          4.5034   58.3501   71.2335 H           1 E12       0.0814
     45 H9         -1.3745   57.4032   73.9547 H           1 E12       0.0298
     46 H10         1.4412   62.1371   74.3334 H           1 E12       0.0511
     47 H11         1.9946   61.7996   72.6843 H           1 E12       0.0511
     48 H12         3.1354   58.2280   74.7200 H           1 E12       0.0913
     49 H13         4.0985   60.1172   72.5445 H           1 E12       0.0333
     50 H14         4.8881   59.6171   74.0304 H           1 E12       0.0333
     51 H15         1.6109   58.2586   71.0821 H           1 E12       0.0317
     52 H16         2.1683   57.0643   69.9523 H           1 E12       0.0317
     53 H17         0.7338   68.8042   64.5991 H           1 E12       0.2526
     54 H18         5.3317   69.3972   64.6850 H           1 E12       0.0600
     55 H19         4.1498   69.2654   66.6791 H           1 E12       0.0298
     56 H20         1.1795   69.8494   61.9954 H           1 E12       0.0511
     57 H21         0.6986   68.1942   62.3801 H           1 E12       0.0511
     58 H22         5.1715   69.8391   62.1769 H           1 E12       0.0913
     59 H23         4.2719   68.5947   60.0435 H           1 E12       0.0333
     60 H24         3.5200   70.0742   60.6300 H           1 E12       0.0333
     61 H25         1.7522   68.4893   60.0829 H           1 E12       0.0298
     62 H26         2.4792   67.2402   61.0889 H           1 E12       0.0298
     63 H27         6.1035   67.9111   61.3955 H           1 E12       0.2022
     64 H28         6.1010   67.9369   63.0408 H           1 E12       0.2022
     65 H29         4.5947   66.1326   61.2819 H           1 E12       0.0814
     66 H30         5.9915   65.7880   62.2774 H           1 E12       0.0814
     67 H31         2.1574   58.8526   68.5224 H           1 E12       0.0267
     68 H32         3.7972   59.0629   69.1288 H           1 E12       0.0267
     69 H33         3.0537   60.8255   70.6816 H           1 E12       0.0265
     70 H34         1.3628   60.4702   70.3499 H           1 E12       0.0265
     71 H35         1.7297   62.4345   69.1520 H           1 E12       0.0265
     72 H36         1.8248   61.1914   67.9059 H           1 E12       0.0265
     73 H37         4.3477   61.3535   67.9702 H           1 E12       0.0265
     74 H38         4.2206   62.5161   69.2900 H           1 E12       0.0265
     75 H39         4.6071   63.8939   67.4298 H           1 E12       0.0265
     76 H40         2.8776   64.0260   67.7104 H           1 E12       0.0265
     77 H41         2.5578   62.2896   65.8344 H           1 E12       0.0265
     78 H42         4.2771   62.3974   65.5104 H           1 E12       0.0265
     79 H43         2.9930   65.0811   65.5690 H           1 E12       0.0265
     80 H44         2.1758   64.0240   64.4408 H           1 E12       0.0265
     81 H45         4.0150   63.8455   62.9840 H           1 E12       0.0267
     82 H46         5.2007   64.2604   64.2391 H           1 E12       0.0267
     83 H47         4.4740   66.5571   64.2950 H           1 E12       0.0317
     84 H48         3.1405   66.2451   63.1668 H           1 E12       0.0317
@<TRIPOS>BOND
     1     1     9   1
     2     1     3   2
     3     1     2  am
     4     2    15   1
     5    15    10   1
     6    15     4   2
     7     4    11   1
     8     4     5   1
     9     5     9   2
    10    11     7   1
    11    11    12   1
    12    12     6   1
    13     6    10   1
    14     7     8   1
    15     8    13   1
    16    13    28   1
    17    28    29   1
    18    29    30   1
    19    30    31   1
    20    31    32   1
    21    32    33   1
    22    33    34   1
    23    34    35   1
    24    35    36   1
    25    36    27   1
    26    27    26   1
    27    26    23   1
    28    23    24   1
    29    23    18   1
    30    18    19   1
    31    18    17   2
    32    17    22   1
    33    17    16   1
    34    16    14  am
    35    14    20   1
    36    14    21   2
    37    20    19   2
    38    22    25   1
    39    25    24   1
    40     2    37   1
    41     5    38   1
    42     6    39   1
    43     6    40   1
    44     7    41   1
    45     7    42   1
    46     8    43   1
    47     8    44   1
    48     9    45   1
    49    10    46   1
    50    10    47   1
    51    11    48   1
    52    12    49   1
    53    12    50   1
    54    13    51   1
    55    13    52   1
    56    16    53   1
    57    19    54   1
    58    20    55   1
    59    22    56   1
    60    22    57   1
    61    23    58   1
    62    24    59   1
    63    24    60   1
    64    25    61   1
    65    25    62   1
    66    26    63   1
    67    26    64   1
    68    27    65   1
    69    27    66   1
    70    28    67   1
    71    28    68   1
    72    29    69   1
    73    29    70   1
    74    30    71   1
    75    30    72   1
    76    31    73   1
    77    31    74   1
    78    32    75   1
    79    32    76   1
    80    33    77   1
    81    33    78   1
    82    34    79   1
    83    34    80   1
    84    35    81   1
    85    35    82   1
    86    36    83   1
    87    36    84   1
@<TRIPOS>SUBSTRUCTURE
     1  E12      1

