@<TRIPOS>MOLECULE
1h23_ligand_049
    84    87
SMALL
GAST_HUCK
****
This file was generated by PARSER (from files_GN.cpp)

@<TRIPOS>ATOM
      1 C1          0.6269   69.0464   63.5526 C.2         1 E12       0.1811
      2 N2         -0.5911   68.9662   64.0838 N.am        1 E12      -0.2230
      3 O7          0.7426   69.2721   62.3566 O.2         1 E12      -0.4310
      4 C4          0.2751   68.6466   66.2488 C.2         1 E12       0.0225
      5 C5          1.5312   68.6183   65.6678 C.2         1 E12      -0.0779
      6 C14        -2.3079   67.7605   67.1607 C.3         1 E12      -0.0310
      7 N17         0.7844   69.4913   68.5621 N.4         1 E12       0.2346
      8 C24         2.2379   69.4903   68.8640 C.3         1 E12      -0.0329
      9 C6          1.7142   68.8356   64.3496 C.2         1 E12      -0.0278
     10 C9         -2.1780   68.5279   65.8226 C.3         1 E12       0.0189
     11 C10         0.1198   68.4541   67.7115 C.3         1 E12      -0.0032
     12 C13        -1.3686   68.4088   68.1967 C.3         1 E12      -0.0041
     13 C63         2.7661   68.2539   69.6606 C.3         1 E12      -0.0126
     14 C29         3.3023   56.8811   71.5182 C.2         1 E12       0.1811
     15 C3         -0.7932   68.7228   65.4010 C.2         1 E12       0.0883
     16 N30         4.2116   57.8180   71.7791 N.am        1 E12      -0.2230
     17 C31         3.8897   59.0368   72.2657 C.2         1 E12       0.0883
     18 C32         2.5883   59.3162   72.5602 C.2         1 E12       0.0225
     19 C33         1.6423   58.3521   72.2389 C.2         1 E12      -0.0779
     20 C34         1.9884   57.1487   71.7414 C.2         1 E12      -0.0278
     21 O35         3.6689   55.8013   71.0795 O.2         1 E12      -0.4310
     22 C36         4.9896   59.9734   72.4696 C.3         1 E12       0.0189
     23 C37         2.1659   60.6419   73.0561 C.3         1 E12      -0.0032
     24 C38         3.3408   61.5466   73.5554 C.3         1 E12      -0.0041
     25 C39         4.5570   61.4544   72.6086 C.3         1 E12      -0.0310
     26 N40         1.1468   60.5549   74.1475 N.4         1 E12       0.2346
     27 C41         0.3058   61.7591   74.3971 C.3         1 E12      -0.0329
     28 C64         3.5249   67.1541   68.8411 C.3         1 E12      -0.0483
     29 C65         2.8755   65.7428   68.8271 C.3         1 E12      -0.0529
     30 C66         3.0086   64.9546   70.1587 C.3         1 E12      -0.0531
     31 C67         2.1539   63.6521   70.1763 C.3         1 E12      -0.0531
     32 C68         0.6926   63.8636   70.6663 C.3         1 E12      -0.0531
     33 C69        -0.2012   62.5977   70.4969 C.3         1 E12      -0.0531
     34 C70        -1.4057   62.5133   71.4921 C.3         1 E12      -0.0529
     35 C71        -1.4372   61.2817   72.4637 C.3         1 E12      -0.0483
     36 C72        -1.1733   61.5696   73.9683 C.3         1 E12      -0.0126
     37 H1         -1.3622   69.0788   63.5059 H           1 E12       0.2526
     38 H2          2.3222   68.3678   66.2044 H           1 E12       0.0600
     39 H3         -3.3416   67.8015   67.5144 H           1 E12       0.0298
     40 H4         -2.0310   66.7133   67.0207 H           1 E12       0.0298
     41 H5          0.3341   69.4434   69.4811 H           1 E12       0.2022
     42 H6          0.5553   70.4105   68.1758 H           1 E12       0.2022
     43 H7          2.3761   70.3636   69.5128 H           1 E12       0.0814
     44 H8          2.8299   69.6805   67.9685 H           1 E12       0.0814
     45 H9          2.6249   68.7869   63.9529 H           1 E12       0.0298
     46 H10        -2.7243   67.9613   65.0603 H           1 E12       0.0511
     47 H11        -2.6574   69.5088   65.9196 H           1 E12       0.0511
     48 H12         0.5427   67.4798   67.9466 H           1 E12       0.0913
     49 H13        -1.7359   69.4237   68.3915 H           1 E12       0.0333
     50 H14        -1.4323   67.8455   69.1326 H           1 E12       0.0333
     51 H15         1.9415   67.8100   70.2252 H           1 E12       0.0317
     52 H16         3.4717   68.6217   70.4116 H           1 E12       0.0317
     53 H17         5.1429   57.6214   71.5979 H           1 E12       0.2526
     54 H18         0.6750   58.5315   72.3740 H           1 E12       0.0600
     55 H19         1.2895   56.4740   71.5312 H           1 E12       0.0298
     56 H20         5.6930   59.9085   71.6319 H           1 E12       0.0511
     57 H21         5.5185   59.6793   73.3784 H           1 E12       0.0511
     58 H22         1.7061   61.1402   72.2032 H           1 E12       0.0913
     59 H23         3.6503   61.2316   74.5574 H           1 E12       0.0333
     60 H24         3.0175   62.5896   73.6153 H           1 E12       0.0333
     61 H25         4.2841   61.8565   71.6244 H           1 E12       0.0298
     62 H26         5.3897   62.0459   73.0101 H           1 E12       0.0298
     63 H27         0.5138   59.7787   73.9580 H           1 E12       0.2022
     64 H28         1.6383   60.3300   75.0171 H           1 E12       0.2022
     65 H29         0.3171   61.9372   75.4740 H           1 E12       0.0814
     66 H30         0.7053   62.6588   73.9219 H           1 E12       0.0814
     67 H31         4.5427   67.0467   69.2305 H           1 E12       0.0267
     68 H32         3.6392   67.4769   67.8031 H           1 E12       0.0267
     69 H33         3.3519   65.1517   68.0378 H           1 E12       0.0265
     70 H34         1.8228   65.8312   68.5708 H           1 E12       0.0265
     71 H35         2.7340   65.5925   71.0029 H           1 E12       0.0265
     72 H36         4.0608   64.6902   70.2967 H           1 E12       0.0265
     73 H37         2.6308   62.9422   70.8576 H           1 E12       0.0265
     74 H38         2.1509   63.1950   69.1803 H           1 E12       0.0265
     75 H39         0.2357   64.6959   70.1209 H           1 E12       0.0265
     76 H40         0.7377   64.1509   71.7208 H           1 E12       0.0265
     77 H41         0.4177   61.7090   70.5813 H           1 E12       0.0265
     78 H42        -0.5839   62.6037   69.4683 H           1 E12       0.0265
     79 H43        -2.3207   62.4800   70.8888 H           1 E12       0.0265
     80 H44        -1.4791   63.4312   72.0827 H           1 E12       0.0265
     81 H45        -0.7603   60.4972   72.1170 H           1 E12       0.0267
     82 H46        -2.4443   60.8565   72.4158 H           1 E12       0.0267
     83 H47        -1.5780   60.7348   74.5460 H           1 E12       0.0317
     84 H48        -1.7391   62.4579   74.2581 H           1 E12       0.0317
@<TRIPOS>BOND
     1     1     9   1
     2     1     3   2
     3     1     2  am
     4     2    15   1
     5    15    10   1
     6    15     4   2
     7     4    11   1
     8     4     5   1
     9     5     9   2
    10    11     7   1
    11    11    12   1
    12    12     6   1
    13     6    10   1
    14     7     8   1
    15     8    13   1
    16    13    28   1
    17    28    29   1
    18    29    30   1
    19    30    31   1
    20    31    32   1
    21    32    33   1
    22    33    34   1
    23    34    35   1
    24    35    36   1
    25    36    27   1
    26    27    26   1
    27    26    23   1
    28    23    24   1
    29    23    18   1
    30    18    19   1
    31    18    17   2
    32    17    22   1
    33    17    16   1
    34    16    14  am
    35    14    20   1
    36    14    21   2
    37    20    19   2
    38    22    25   1
    39    25    24   1
    40     2    37   1
    41     5    38   1
    42     6    39   1
    43     6    40   1
    44     7    41   1
    45     7    42   1
    46     8    43   1
    47     8    44   1
    48     9    45   1
    49    10    46   1
    50    10    47   1
    51    11    48   1
    52    12    49   1
    53    12    50   1
    54    13    51   1
    55    13    52   1
    56    16    53   1
    57    19    54   1
    58    20    55   1
    59    22    56   1
    60    22    57   1
    61    23    58   1
    62    24    59   1
    63    24    60   1
    64    25    61   1
    65    25    62   1
    66    26    63   1
    67    26    64   1
    68    27    65   1
    69    27    66   1
    70    28    67   1
    71    28    68   1
    72    29    69   1
    73    29    70   1
    74    30    71   1
    75    30    72   1
    76    31    73   1
    77    31    74   1
    78    32    75   1
    79    32    76   1
    80    33    77   1
    81    33    78   1
    82    34    79   1
    83    34    80   1
    84    35    81   1
    85    35    82   1
    86    36    83   1
    87    36    84   1
@<TRIPOS>SUBSTRUCTURE
     1  E12      1

