@<TRIPOS>MOLECULE
1h23_ligand_017
    84    87
SMALL
GAST_HUCK
****
This file was generated by PARSER (from files_GN.cpp)

@<TRIPOS>ATOM
      1 C1          2.4749   68.4403   60.7291 C.2         1 E12       0.1811
      2 N2          3.7651   68.1729   60.9221 N.am        1 E12      -0.2230
      3 O7          1.9913   68.3016   59.6189 O.2         1 E12      -0.4310
      4 C4          3.6279   68.7356   63.1935 C.2         1 E12       0.0225
      5 C5          2.2882   69.0112   62.9903 C.2         1 E12      -0.0779
      6 C14         6.4201   67.9707   63.5960 C.3         1 E12      -0.0310
      7 N17         3.7106   67.9362   65.5574 N.4         1 E12       0.2346
      8 C24         3.4724   66.5158   65.1850 C.3         1 E12      -0.0329
      9 C6          1.7138   68.8701   61.7770 C.2         1 E12      -0.0278
     10 C9          5.7886   67.9989   62.1791 C.3         1 E12       0.0189
     11 C10         4.2085   68.9089   64.5348 C.3         1 E12      -0.0032
     12 C13         5.7638   69.0148   64.5238 C.3         1 E12      -0.0041
     13 C63         3.3136   65.5666   66.4003 C.3         1 E12      -0.0126
     14 C29        -2.3478   61.8315   77.5630 C.2         1 E12       0.1811
     15 C3          4.3620   68.2984   62.1293 C.2         1 E12       0.0883
     16 N30        -3.4705   62.4828   77.2613 N.am        1 E12      -0.2230
     17 C31        -3.4915   63.8124   76.9997 C.2         1 E12       0.0883
     18 C32        -2.3131   64.4997   76.9082 C.2         1 E12       0.0225
     19 C33        -1.1754   63.8474   77.3570 C.2         1 E12      -0.0779
     20 C34        -1.1849   62.5332   77.6758 C.2         1 E12      -0.0278
     21 O35        -2.3732   60.6213   77.7469 O.2         1 E12      -0.4310
     22 C36        -4.7942   64.4426   76.8518 C.3         1 E12       0.0189
     23 C37        -2.2305   65.8971   76.4264 C.3         1 E12      -0.0032
     24 C38        -3.6297   66.5849   76.2128 C.3         1 E12      -0.0041
     25 C39        -4.7501   65.9713   77.0852 C.3         1 E12      -0.0310
     26 N40        -1.5313   66.0609   75.1138 N.4         1 E12       0.2346
     27 C41        -0.2175   65.4668   74.7845 C.3         1 E12      -0.0329
     28 C64         4.6302   64.9478   66.9567 C.3         1 E12      -0.0483
     29 C65         5.4073   65.6724   68.0975 C.3         1 E12      -0.0529
     30 C66         4.8482   65.4702   69.5351 C.3         1 E12      -0.0531
     31 C67         3.6235   66.3673   69.9036 C.3         1 E12      -0.0531
     32 C68         2.3245   65.5670   70.2054 C.3         1 E12      -0.0531
     33 C69         1.0499   66.4608   70.1609 C.3         1 E12      -0.0531
     34 C70        -0.2206   65.8397   70.7976 C.3         1 E12      -0.0529
     35 C71        -0.4481   66.1913   72.3008 C.3         1 E12      -0.0483
     36 C72        -0.1740   65.0316   73.2930 C.3         1 E12      -0.0126
     37 H1          4.2980   67.8772   60.1667 H           1 E12       0.2526
     38 H2          1.7263   69.3350   63.7442 H           1 E12       0.0600
     39 H3          6.3113   66.9786   64.0354 H           1 E12       0.0298
     40 H4          7.4918   68.1737   63.5213 H           1 E12       0.0298
     41 H5          2.8177   68.2952   65.9073 H           1 E12       0.2022
     42 H6          4.3615   67.9598   66.3413 H           1 E12       0.2022
     43 H7          4.2636   66.1316   64.5421 H           1 E12       0.0814
     44 H8          2.5458   66.4879   64.6023 H           1 E12       0.0814
     45 H9          0.7505   69.0875   61.6504 H           1 E12       0.0298
     46 H10         6.3090   68.7518   61.5799 H           1 E12       0.0511
     47 H11         5.9697   67.0251   61.7135 H           1 E12       0.0511
     48 H12         3.8766   69.8846   64.9061 H           1 E12       0.0913
     49 H13         6.1579   68.9006   65.5336 H           1 E12       0.0333
     50 H14         6.0496   70.0106   64.1696 H           1 E12       0.0333
     51 H15         2.6944   64.7324   66.0576 H           1 E12       0.0317
     52 H16         2.7466   66.0577   67.1876 H           1 E12       0.0317
     53 H17        -4.3016   61.9784   77.2202 H           1 E12       0.2526
     54 H18        -0.3396   64.3652   77.5154 H           1 E12       0.0600
     55 H19        -0.3538   62.0989   78.0148 H           1 E12       0.0298
     56 H20        -5.4881   64.0162   77.5824 H           1 E12       0.0511
     57 H21        -5.1859   64.2280   75.8524 H           1 E12       0.0511
     58 H22        -1.7025   66.4877   77.1781 H           1 E12       0.0913
     59 H23        -3.9614   66.4891   75.1695 H           1 E12       0.0333
     60 H24        -3.5600   67.6559   76.4278 H           1 E12       0.0333
     61 H25        -4.5476   66.1859   78.1402 H           1 E12       0.0298
     62 H26        -5.7154   66.4167   76.8215 H           1 E12       0.0298
     63 H27        -2.1736   65.7082   74.4126 H           1 E12       0.2022
     64 H28        -1.4358   67.0740   74.9534 H           1 E12       0.2022
     65 H29         0.5628   66.1988   74.9956 H           1 E12       0.0814
     66 H30        -0.0311   64.5683   75.3750 H           1 E12       0.0814
     67 H31         5.3180   64.8169   66.1187 H           1 E12       0.0267
     68 H32         4.3921   63.9467   67.3196 H           1 E12       0.0267
     69 H33         5.5223   66.7360   67.8849 H           1 E12       0.0265
     70 H34         6.4185   65.2538   68.0944 H           1 E12       0.0265
     71 H35         5.6479   65.6930   70.2497 H           1 E12       0.0265
     72 H36         4.6081   64.4131   69.6750 H           1 E12       0.0265
     73 H37         3.4248   67.0839   69.1045 H           1 E12       0.0265
     74 H38         3.8646   66.9641   70.7888 H           1 E12       0.0265
     75 H39         2.4220   65.1027   71.1911 H           1 E12       0.0265
     76 H40         2.1939   64.7680   69.4685 H           1 E12       0.0265
     77 H41         0.8228   66.6712   69.1086 H           1 E12       0.0265
     78 H42         1.2605   67.4183   70.6457 H           1 E12       0.0265
     79 H43        -0.2118   64.7574   70.6480 H           1 E12       0.0265
     80 H44        -1.0765   66.2280   70.2370 H           1 E12       0.0265
     81 H45        -1.4901   66.4961   72.4223 H           1 E12       0.0267
     82 H46         0.1720   67.0403   72.5870 H           1 E12       0.0267
     83 H47         0.8011   64.5824   73.0885 H           1 E12       0.0317
     84 H48        -0.9279   64.2545   73.1386 H           1 E12       0.0317
@<TRIPOS>BOND
     1     1     9   1
     2     1     3   2
     3     1     2  am
     4     2    15   1
     5    15    10   1
     6    15     4   2
     7     4    11   1
     8     4     5   1
     9     5     9   2
    10    11     7   1
    11    11    12   1
    12    12     6   1
    13     6    10   1
    14     7     8   1
    15     8    13   1
    16    13    28   1
    17    28    29   1
    18    29    30   1
    19    30    31   1
    20    31    32   1
    21    32    33   1
    22    33    34   1
    23    34    35   1
    24    35    36   1
    25    36    27   1
    26    27    26   1
    27    26    23   1
    28    23    24   1
    29    23    18   1
    30    18    19   1
    31    18    17   2
    32    17    22   1
    33    17    16   1
    34    16    14  am
    35    14    20   1
    36    14    21   2
    37    20    19   2
    38    22    25   1
    39    25    24   1
    40     2    37   1
    41     5    38   1
    42     6    39   1
    43     6    40   1
    44     7    41   1
    45     7    42   1
    46     8    43   1
    47     8    44   1
    48     9    45   1
    49    10    46   1
    50    10    47   1
    51    11    48   1
    52    12    49   1
    53    12    50   1
    54    13    51   1
    55    13    52   1
    56    16    53   1
    57    19    54   1
    58    20    55   1
    59    22    56   1
    60    22    57   1
    61    23    58   1
    62    24    59   1
    63    24    60   1
    64    25    61   1
    65    25    62   1
    66    26    63   1
    67    26    64   1
    68    27    65   1
    69    27    66   1
    70    28    67   1
    71    28    68   1
    72    29    69   1
    73    29    70   1
    74    30    71   1
    75    30    72   1
    76    31    73   1
    77    31    74   1
    78    32    75   1
    79    32    76   1
    80    33    77   1
    81    33    78   1
    82    34    79   1
    83    34    80   1
    84    35    81   1
    85    35    82   1
    86    36    83   1
    87    36    84   1
@<TRIPOS>SUBSTRUCTURE
     1  E12      1

