@<TRIPOS>MOLECULE
1h23_ligand_079
    84    87
SMALL
GAST_HUCK
****
This file was generated by PARSER (from files_GN.cpp)

@<TRIPOS>ATOM
      1 C1          2.4189   68.3532   60.9589 C.2         1 E12       0.1811
      2 N2          3.7434   68.2067   61.0069 N.am        1 E12      -0.2230
      3 O7          1.8433   68.2058   59.8884 O.2         1 E12      -0.4310
      4 C4          3.8178   68.8092   63.2739 C.2         1 E12       0.0225
      5 C5          2.4392   68.9298   63.2290 C.2         1 E12      -0.0779
      6 C14         6.6673   68.2802   63.3479 C.3         1 E12      -0.0310
      7 N17         4.1554   68.4286   65.7043 N.4         1 E12       0.2346
      8 C24         4.6491   67.0345   65.8428 C.3         1 E12      -0.0329
      9 C6          1.7452   68.7137   62.0888 C.2         1 E12      -0.0278
     10 C9          5.9015   68.2688   62.0080 C.3         1 E12       0.0189
     11 C10         4.5454   69.2125   64.4934 C.3         1 E12      -0.0032
     12 C13         6.0901   69.3658   64.2894 C.3         1 E12      -0.0041
     13 C63         4.2147   66.3930   67.1914 C.3         1 E12      -0.0126
     14 C29        -0.2549   64.3661   70.6079 C.2         1 E12       0.1811
     15 C3          4.4554   68.4039   62.1389 C.2         1 E12       0.0883
     16 N30         0.1232   64.6386   71.8565 N.am        1 E12      -0.2230
     17 C31        -0.2633   63.8893   72.9156 C.2         1 E12       0.0883
     18 C32        -1.0206   62.7716   72.7101 C.2         1 E12       0.0225
     19 C33        -1.4666   62.5381   71.4199 C.2         1 E12      -0.0779
     20 C34        -1.0746   63.3001   70.3782 C.2         1 E12      -0.0278
     21 O35         0.0849   65.1144   69.7019 O.2         1 E12      -0.4310
     22 C36         0.1559   64.3545   74.2339 C.3         1 E12       0.0189
     23 C37        -1.4838   61.9165   73.8259 C.3         1 E12      -0.0032
     24 C38        -0.8176   62.2321   75.2032 C.3         1 E12      -0.0041
     25 C39        -0.6684   63.7574   75.4055 C.3         1 E12      -0.0310
     26 N40        -1.5260   60.4428   73.5709 N.4         1 E12       0.2346
     27 C41        -0.3126   59.5858   73.4798 C.3         1 E12      -0.0329
     28 C64         4.7222   64.9250   67.2656 C.3         1 E12      -0.0483
     29 C65         4.3670   64.1470   68.5650 C.3         1 E12      -0.0529
     30 C66         5.1809   64.5559   69.8332 C.3         1 E12      -0.0531
     31 C67         5.3421   63.4320   70.9035 C.3         1 E12      -0.0531
     32 C68         4.0326   62.7272   71.3868 C.3         1 E12      -0.0531
     33 C69         3.8246   61.3110   70.7630 C.3         1 E12      -0.0531
     34 C70         2.3694   60.7737   70.7937 C.3         1 E12      -0.0529
     35 C71         1.7724   60.5498   72.2120 C.3         1 E12      -0.0483
     36 C72         0.4777   59.6822   72.1447 C.3         1 E12      -0.0126
     37 H1          4.2285   67.9790   60.1942 H           1 E12       0.2526
     38 H2          1.9382   69.2206   64.0377 H           1 E12       0.0600
     39 H3          6.5843   67.2947   63.8071 H           1 E12       0.0298
     40 H4          7.7236   68.4676   63.1531 H           1 E12       0.0298
     41 H5          3.1288   68.4035   65.7382 H           1 E12       0.2022
     42 H6          4.4761   68.9594   66.5182 H           1 E12       0.2022
     43 H7          5.7484   67.0543   65.8188 H           1 E12       0.0814
     44 H8          4.2649   66.4365   64.9996 H           1 E12       0.0814
     45 H9          0.7561   68.8307   62.0772 H           1 E12       0.0298
     46 H10         6.2649   69.0909   61.3811 H           1 E12       0.0511
     47 H11         6.1282   67.3248   61.5031 H           1 E12       0.0511
     48 H12         4.1987   70.2251   64.7199 H           1 E12       0.0913
     49 H13         6.6073   69.3351   65.2476 H           1 E12       0.0333
     50 H14         6.2996   70.3438   63.8345 H           1 E12       0.0333
     51 H15         3.1177   66.4121   67.2681 H           1 E12       0.0317
     52 H16         4.6473   66.9740   68.0188 H           1 E12       0.0317
     53 H17         0.6825   65.4172   72.0116 H           1 E12       0.2526
     54 H18        -2.1194   61.8090   71.2447 H           1 E12       0.0600
     55 H19        -1.4133   63.1112   69.4603 H           1 E12       0.0298
     56 H20         0.0682   65.4466   74.2883 H           1 E12       0.0511
     57 H21         1.2108   64.0946   74.3630 H           1 E12       0.0511
     58 H22        -2.5410   62.1823   73.9419 H           1 E12       0.0913
     59 H23         0.1839   61.7895   75.2552 H           1 E12       0.0333
     60 H24        -1.4244   61.8140   76.0146 H           1 E12       0.0333
     61 H25        -1.6615   64.2239   75.4326 H           1 E12       0.0298
     62 H26        -0.1644   63.9602   76.3534 H           1 E12       0.0298
     63 H27        -2.0793   60.0521   74.3391 H           1 E12       0.2022
     64 H28        -2.0699   60.2910   72.7170 H           1 E12       0.2022
     65 H29         0.3471   59.7314   74.3433 H           1 E12       0.0814
     66 H30        -0.6983   58.5593   73.5484 H           1 E12       0.0814
     67 H31         5.8132   64.9206   67.1431 H           1 E12       0.0267
     68 H32         4.2969   64.3717   66.4167 H           1 E12       0.0267
     69 H33         4.5629   63.0918   68.3482 H           1 E12       0.0265
     70 H34         3.2977   64.2494   68.7732 H           1 E12       0.0265
     71 H35         4.6996   65.4258   70.2977 H           1 E12       0.0265
     72 H36         6.1886   64.8619   69.5307 H           1 E12       0.0265
     73 H37         5.8367   63.8856   71.7701 H           1 E12       0.0265
     74 H38         6.0413   62.6855   70.5135 H           1 E12       0.0265
     75 H39         3.1692   63.3664   71.1731 H           1 E12       0.0265
     76 H40         4.0791   62.5990   72.4751 H           1 E12       0.0265
     77 H41         4.4807   60.5965   71.2771 H           1 E12       0.0265
     78 H42         4.1259   61.3338   69.7108 H           1 E12       0.0265
     79 H43         2.3693   59.8176   70.2558 H           1 E12       0.0265
     80 H44         1.7219   61.4648   70.2404 H           1 E12       0.0265
     81 H45         1.5521   61.5223   72.6674 H           1 E12       0.0267
     82 H46         2.5081   60.0318   72.8447 H           1 E12       0.0267
     83 H47         0.7864   58.6684   71.8553 H           1 E12       0.0317
     84 H48        -0.1918   60.0605   71.3589 H           1 E12       0.0317
@<TRIPOS>BOND
     1     1     9   1
     2     1     3   2
     3     1     2  am
     4     2    15   1
     5    15    10   1
     6    15     4   2
     7     4    11   1
     8     4     5   1
     9     5     9   2
    10    11     7   1
    11    11    12   1
    12    12     6   1
    13     6    10   1
    14     7     8   1
    15     8    13   1
    16    13    28   1
    17    28    29   1
    18    29    30   1
    19    30    31   1
    20    31    32   1
    21    32    33   1
    22    33    34   1
    23    34    35   1
    24    35    36   1
    25    36    27   1
    26    27    26   1
    27    26    23   1
    28    23    24   1
    29    23    18   1
    30    18    19   1
    31    18    17   2
    32    17    22   1
    33    17    16   1
    34    16    14  am
    35    14    20   1
    36    14    21   2
    37    20    19   2
    38    22    25   1
    39    25    24   1
    40     2    37   1
    41     5    38   1
    42     6    39   1
    43     6    40   1
    44     7    41   1
    45     7    42   1
    46     8    43   1
    47     8    44   1
    48     9    45   1
    49    10    46   1
    50    10    47   1
    51    11    48   1
    52    12    49   1
    53    12    50   1
    54    13    51   1
    55    13    52   1
    56    16    53   1
    57    19    54   1
    58    20    55   1
    59    22    56   1
    60    22    57   1
    61    23    58   1
    62    24    59   1
    63    24    60   1
    64    25    61   1
    65    25    62   1
    66    26    63   1
    67    26    64   1
    68    27    65   1
    69    27    66   1
    70    28    67   1
    71    28    68   1
    72    29    69   1
    73    29    70   1
    74    30    71   1
    75    30    72   1
    76    31    73   1
    77    31    74   1
    78    32    75   1
    79    32    76   1
    80    33    77   1
    81    33    78   1
    82    34    79   1
    83    34    80   1
    84    35    81   1
    85    35    82   1
    86    36    83   1
    87    36    84   1
@<TRIPOS>SUBSTRUCTURE
     1  E12      1

