@<TRIPOS>MOLECULE
1h23_ligand_057
    84    87
SMALL
GAST_HUCK
****
This file was generated by PARSER (from files_GN.cpp)

@<TRIPOS>ATOM
      1 C1          3.3278   62.9185   65.5568 C.2         1 E12       0.1811
      2 N2          3.3767   62.6461   66.8604 N.am        1 E12      -0.2230
      3 O7          2.7535   62.1486   64.8026 O.2         1 E12      -0.4310
      4 C4          4.5839   64.6125   67.3085 C.2         1 E12       0.0225
      5 C5          4.5884   64.8448   65.9493 C.2         1 E12      -0.0779
      6 C14         4.6787   63.9691   70.1648 C.3         1 E12      -0.0310
      7 N17         4.1355   66.5929   68.6676 N.4         1 E12       0.2346
      8 C24         3.7993   67.7155   67.7599 C.3         1 E12      -0.0329
      9 C6          3.9470   64.0336   65.0831 C.2         1 E12      -0.0278
     10 C9          4.1270   62.9784   69.1139 C.3         1 E12       0.0189
     11 C10         5.1552   65.5897   68.2455 C.3         1 E12      -0.0032
     12 C13         5.7342   64.8982   69.5129 C.3         1 E12      -0.0041
     13 C63         2.6918   67.3861   66.7138 C.3         1 E12      -0.0126
     14 C29         3.9467   57.5920   70.8474 C.2         1 E12       0.1811
     15 C3          3.9916   63.4522   67.7581 C.2         1 E12       0.0883
     16 N30         3.9200   57.8915   72.1439 N.am        1 E12      -0.2230
     17 C31         3.3870   59.0412   72.6166 C.2         1 E12       0.0883
     18 C32         2.7841   59.9118   71.7470 C.2         1 E12       0.0225
     19 C33         2.8462   59.6061   70.3984 C.2         1 E12      -0.0779
     20 C34         3.4089   58.4660   69.9494 C.2         1 E12      -0.0278
     21 O35         4.4493   56.5372   70.4870 O.2         1 E12      -0.4310
     22 C36         3.4928   59.2814   74.0504 C.3         1 E12       0.0189
     23 C37         2.1310   61.1602   72.1941 C.3         1 E12      -0.0032
     24 C38         2.0042   61.2988   73.7417 C.3         1 E12      -0.0041
     25 C39         3.2607   60.7568   74.4572 C.3         1 E12      -0.0310
     26 N40         0.7598   61.3012   71.5973 N.4         1 E12       0.2346
     27 C41         0.5216   62.3198   70.5588 C.3         1 E12      -0.0329
     28 C64         1.6618   68.5281   66.5083 C.3         1 E12      -0.0483
     29 C65         0.4234   68.1211   65.6431 C.3         1 E12      -0.0529
     30 C66        -0.9621   68.5061   66.2513 C.3         1 E12      -0.0531
     31 C67        -1.5165   67.5578   67.3541 C.3         1 E12      -0.0531
     32 C68        -0.5922   67.3123   68.5794 C.3         1 E12      -0.0531
     33 C69        -1.2325   66.3998   69.6549 C.3         1 E12      -0.0531
     34 C70        -0.3460   66.1890   70.9228 C.3         1 E12      -0.0529
     35 C71         0.5702   64.9314   70.8758 C.3         1 E12      -0.0483
     36 C72        -0.2081   63.5930   71.0477 C.3         1 E12      -0.0126
     37 H1          2.9498   61.8376   67.1832 H           1 E12       0.2526
     38 H2          5.0665   65.6397   65.5905 H           1 E12       0.0600
     39 H3          3.8689   64.5840   70.5739 H           1 E12       0.0298
     40 H4          5.1372   63.4209   70.9966 H           1 E12       0.0298
     41 H5          4.4824   67.0191   69.5299 H           1 E12       0.2022
     42 H6          3.2715   66.0975   68.9068 H           1 E12       0.2022
     43 H7          4.6883   68.0837   67.2468 H           1 E12       0.0814
     44 H8          3.4548   68.5228   68.4106 H           1 E12       0.0814
     45 H9          3.9553   64.2383   64.1107 H           1 E12       0.0298
     46 H10         4.7270   62.0762   69.1190 H           1 E12       0.0511
     47 H11         3.1170   62.6704   69.4701 H           1 E12       0.0511
     48 H12         5.9959   66.1080   67.7748 H           1 E12       0.0913
     49 H13         6.0503   65.6522   70.2435 H           1 E12       0.0333
     50 H14         6.6151   64.3036   69.2374 H           1 E12       0.0333
     51 H15         2.1672   66.4827   67.0237 H           1 E12       0.0317
     52 H16         3.1533   67.1761   65.7486 H           1 E12       0.0317
     53 H17         4.3158   57.2610   72.7667 H           1 E12       0.2526
     54 H18         2.4636   60.2311   69.7281 H           1 E12       0.0600
     55 H19         3.4328   58.2735   68.9713 H           1 E12       0.0298
     56 H20         4.4894   58.9916   74.3984 H           1 E12       0.0511
     57 H21         2.7653   58.6422   74.5606 H           1 E12       0.0511
     58 H22         2.7789   61.9850   71.8689 H           1 E12       0.0913
     59 H23         1.1354   60.7354   74.1015 H           1 E12       0.0333
     60 H24         1.8545   62.3496   74.0092 H           1 E12       0.0333
     61 H25         4.1295   61.3570   74.1711 H           1 E12       0.0298
     62 H26         3.1360   60.8294   75.5393 H           1 E12       0.0298
     63 H27         0.5046   60.3934   71.1929 H           1 E12       0.2022
     64 H28         0.0910   61.4835   72.3556 H           1 E12       0.2022
     65 H29         1.4814   62.6083   70.0653 H           1 E12       0.0814
     66 H30        -0.0514   61.8583   69.7665 H           1 E12       0.0814
     67 H31         2.1734   69.3672   66.0304 H           1 E12       0.0267
     68 H32         1.3310   68.8885   67.4821 H           1 E12       0.0267
     69 H33         0.4257   67.0448   65.4399 H           1 E12       0.0265
     70 H34         0.5158   68.6205   64.6704 H           1 E12       0.0265
     71 H35        -1.6907   68.4982   65.4322 H           1 E12       0.0265
     72 H36        -0.9265   69.5343   66.6298 H           1 E12       0.0265
     73 H37        -1.7545   66.5926   66.9015 H           1 E12       0.0265
     74 H38        -2.4527   67.9916   67.7157 H           1 E12       0.0265
     75 H39        -0.3388   68.2743   69.0302 H           1 E12       0.0265
     76 H40         0.3249   66.8374   68.2403 H           1 E12       0.0265
     77 H41        -1.4735   65.4426   69.1920 H           1 E12       0.0265
     78 H42        -2.1766   66.8477   69.9615 H           1 E12       0.0265
     79 H43        -0.9956   66.1168   71.8010 H           1 E12       0.0265
     80 H44         0.2809   67.0710   71.0729 H           1 E12       0.0265
     81 H45         1.3052   64.9987   71.6877 H           1 E12       0.0267
     82 H46         1.1238   64.9318   69.9296 H           1 E12       0.0267
     83 H47        -1.1518   63.6471   70.4981 H           1 E12       0.0317
     84 H48        -0.4784   63.4843   72.1059 H           1 E12       0.0317
@<TRIPOS>BOND
     1     1     9   1
     2     1     3   2
     3     1     2  am
     4     2    15   1
     5    15    10   1
     6    15     4   2
     7     4    11   1
     8     4     5   1
     9     5     9   2
    10    11     7   1
    11    11    12   1
    12    12     6   1
    13     6    10   1
    14     7     8   1
    15     8    13   1
    16    13    28   1
    17    28    29   1
    18    29    30   1
    19    30    31   1
    20    31    32   1
    21    32    33   1
    22    33    34   1
    23    34    35   1
    24    35    36   1
    25    36    27   1
    26    27    26   1
    27    26    23   1
    28    23    24   1
    29    23    18   1
    30    18    19   1
    31    18    17   2
    32    17    22   1
    33    17    16   1
    34    16    14  am
    35    14    20   1
    36    14    21   2
    37    20    19   2
    38    22    25   1
    39    25    24   1
    40     2    37   1
    41     5    38   1
    42     6    39   1
    43     6    40   1
    44     7    41   1
    45     7    42   1
    46     8    43   1
    47     8    44   1
    48     9    45   1
    49    10    46   1
    50    10    47   1
    51    11    48   1
    52    12    49   1
    53    12    50   1
    54    13    51   1
    55    13    52   1
    56    16    53   1
    57    19    54   1
    58    20    55   1
    59    22    56   1
    60    22    57   1
    61    23    58   1
    62    24    59   1
    63    24    60   1
    64    25    61   1
    65    25    62   1
    66    26    63   1
    67    26    64   1
    68    27    65   1
    69    27    66   1
    70    28    67   1
    71    28    68   1
    72    29    69   1
    73    29    70   1
    74    30    71   1
    75    30    72   1
    76    31    73   1
    77    31    74   1
    78    32    75   1
    79    32    76   1
    80    33    77   1
    81    33    78   1
    82    34    79   1
    83    34    80   1
    84    35    81   1
    85    35    82   1
    86    36    83   1
    87    36    84   1
@<TRIPOS>SUBSTRUCTURE
     1  E12      1

