@<TRIPOS>MOLECULE
1h23_ligand_086
    84    87
SMALL
GAST_HUCK
****
This file was generated by PARSER (from files_GN.cpp)

@<TRIPOS>ATOM
      1 C1         -1.0848   66.9022   69.0796 C.2         1 E12       0.1811
      2 N2         -0.6467   67.4260   67.9373 N.am        1 E12      -0.2230
      3 O7         -2.2873   66.7803   69.2594 O.2         1 E12      -0.4310
      4 C4          1.5980   67.1880   68.5862 C.2         1 E12       0.0225
      5 C5          1.1293   66.7320   69.8095 C.2         1 E12      -0.0779
      6 C14         2.4618   68.7779   66.3613 C.3         1 E12      -0.0310
      7 N17         3.6445   65.9066   68.6532 N.4         1 E12       0.2346
      8 C24         5.0360   65.5630   68.2733 C.3         1 E12      -0.0329
      9 C6         -0.1864   66.5672   70.0513 C.2         1 E12      -0.0278
     10 C9          1.0078   68.2437   66.4096 C.3         1 E12       0.0189
     11 C10         3.0551   67.2323   68.3178 C.3         1 E12      -0.0032
     12 C13         3.4308   67.6869   66.8716 C.3         1 E12      -0.0041
     13 C63         5.8955   65.0488   69.4715 C.3         1 E12      -0.0126
     14 C29         4.6663   59.3776   72.4453 C.2         1 E12       0.1811
     15 C3          0.6690   67.6009   67.6764 C.2         1 E12       0.0883
     16 N30         4.3379   58.3704   73.2589 N.am        1 E12      -0.2230
     17 C31         3.7482   58.5732   74.4615 C.2         1 E12       0.0883
     18 C32         3.3283   59.8251   74.7995 C.2         1 E12       0.0225
     19 C33         3.7430   60.8710   73.9903 C.2         1 E12      -0.0779
     20 C34         4.4082   60.6583   72.8348 C.2         1 E12      -0.0278
     21 O35         5.2300   59.1370   71.3857 O.2         1 E12      -0.4310
     22 C36         3.6349   57.4249   75.3552 C.3         1 E12       0.0189
     23 C37         2.5477   60.0970   76.0207 C.3         1 E12      -0.0032
     24 C38         2.2350   58.8472   76.9065 C.3         1 E12      -0.0041
     25 C39         3.3863   57.8171   76.8357 C.3         1 E12      -0.0310
     26 N40         1.3117   60.9127   75.7904 N.4         1 E12       0.2346
     27 C41         0.2044   60.4734   74.8916 C.3         1 E12      -0.0329
     28 C64         5.2037   64.1256   70.5208 C.3         1 E12      -0.0483
     29 C65         4.4640   62.8864   69.9357 C.3         1 E12      -0.0529
     30 C66         3.0835   62.5971   70.5960 C.3         1 E12      -0.0531
     31 C67         1.8781   63.1579   69.7822 C.3         1 E12      -0.0531
     32 C68         0.5135   62.4879   70.1131 C.3         1 E12      -0.0531
     33 C69        -0.1993   63.0759   71.3682 C.3         1 E12      -0.0531
     34 C70        -1.2227   62.1261   72.0635 C.3         1 E12      -0.0529
     35 C71        -0.7292   60.6926   72.4445 C.3         1 E12      -0.0483
     36 C72         0.5235   60.5864   73.3758 C.3         1 E12      -0.0126
     37 H1         -1.2991   67.7157   67.2803 H           1 E12       0.2526
     38 H2          1.7646   66.5287   70.5436 H           1 E12       0.0600
     39 H3          2.7172   69.0671   65.3381 H           1 E12       0.0298
     40 H4          2.5467   69.6645   66.9981 H           1 E12       0.0298
     41 H5          3.0354   65.1836   68.2568 H           1 E12       0.2022
     42 H6          3.5864   65.8345   69.6655 H           1 E12       0.2022
     43 H7          5.5423   66.4293   67.8389 H           1 E12       0.0814
     44 H8          4.9917   64.7868   67.5030 H           1 E12       0.0814
     45 H9         -0.4986   66.2484   70.9384 H           1 E12       0.0298
     46 H10         0.3331   69.0895   66.2396 H           1 E12       0.0511
     47 H11         0.8531   67.5232   65.6032 H           1 E12       0.0511
     48 H12         3.4815   67.9668   69.0106 H           1 E12       0.0913
     49 H13         3.3881   66.8351   66.1860 H           1 E12       0.0333
     50 H14         4.4470   68.0869   66.8531 H           1 E12       0.0333
     51 H15         6.2567   65.9257   70.0152 H           1 E12       0.0317
     52 H16         6.7765   64.5311   69.0700 H           1 E12       0.0317
     53 H17         4.5622   57.4633   72.9896 H           1 E12       0.2526
     54 H18         3.5746   61.8131   74.2666 H           1 E12       0.0600
     55 H19         4.7252   61.4300   72.2866 H           1 E12       0.0298
     56 H20         4.5627   56.8438   75.3175 H           1 E12       0.0511
     57 H21         2.8202   56.7859   74.9972 H           1 E12       0.0511
     58 H22         3.1953   60.7356   76.6320 H           1 E12       0.0913
     59 H23         1.3197   58.3524   76.5729 H           1 E12       0.0333
     60 H24         2.0926   59.1636   77.9469 H           1 E12       0.0333
     61 H25         4.2969   58.2557   77.2624 H           1 E12       0.0298
     62 H26         3.1266   56.9289   77.4168 H           1 E12       0.0298
     63 H27         0.8943   61.0489   76.7122 H           1 E12       0.2022
     64 H28         1.6134   61.8355   75.4612 H           1 E12       0.2022
     65 H29        -0.1004   59.4473   75.1229 H           1 E12       0.0814
     66 H30        -0.6423   61.1270   75.1206 H           1 E12       0.0814
     67 H31         4.5216   64.7307   71.1230 H           1 E12       0.0267
     68 H32         5.9812   63.7705   71.2025 H           1 E12       0.0267
     69 H33         5.1090   62.0145   70.0897 H           1 E12       0.0265
     70 H34         4.3309   62.9907   68.8583 H           1 E12       0.0265
     71 H35         3.0614   63.0075   71.6089 H           1 E12       0.0265
     72 H36         2.9671   61.5105   70.6880 H           1 E12       0.0265
     73 H37         2.0801   62.9895   68.7188 H           1 E12       0.0265
     74 H38         1.7970   64.2386   69.9387 H           1 E12       0.0265
     75 H39         0.6863   61.4177   70.2320 H           1 E12       0.0265
     76 H40        -0.1562   62.6147   69.2562 H           1 E12       0.0265
     77 H41        -0.7376   63.9733   71.0525 H           1 E12       0.0265
     78 H42         0.5336   63.4051   72.1029 H           1 E12       0.0265
     79 H43        -2.0861   62.0224   71.3952 H           1 E12       0.0265
     80 H44        -1.5814   62.6248   72.9692 H           1 E12       0.0265
     81 H45        -0.5071   60.1603   71.5155 H           1 E12       0.0267
     82 H46        -1.5724   60.1627   72.9054 H           1 E12       0.0267
     83 H47         1.1836   61.4394   73.2188 H           1 E12       0.0317
     84 H48         1.0820   59.6918   73.0883 H           1 E12       0.0317
@<TRIPOS>BOND
     1     1     9   1
     2     1     3   2
     3     1     2  am
     4     2    15   1
     5    15    10   1
     6    15     4   2
     7     4    11   1
     8     4     5   1
     9     5     9   2
    10    11     7   1
    11    11    12   1
    12    12     6   1
    13     6    10   1
    14     7     8   1
    15     8    13   1
    16    13    28   1
    17    28    29   1
    18    29    30   1
    19    30    31   1
    20    31    32   1
    21    32    33   1
    22    33    34   1
    23    34    35   1
    24    35    36   1
    25    36    27   1
    26    27    26   1
    27    26    23   1
    28    23    24   1
    29    23    18   1
    30    18    19   1
    31    18    17   2
    32    17    22   1
    33    17    16   1
    34    16    14  am
    35    14    20   1
    36    14    21   2
    37    20    19   2
    38    22    25   1
    39    25    24   1
    40     2    37   1
    41     5    38   1
    42     6    39   1
    43     6    40   1
    44     7    41   1
    45     7    42   1
    46     8    43   1
    47     8    44   1
    48     9    45   1
    49    10    46   1
    50    10    47   1
    51    11    48   1
    52    12    49   1
    53    12    50   1
    54    13    51   1
    55    13    52   1
    56    16    53   1
    57    19    54   1
    58    20    55   1
    59    22    56   1
    60    22    57   1
    61    23    58   1
    62    24    59   1
    63    24    60   1
    64    25    61   1
    65    25    62   1
    66    26    63   1
    67    26    64   1
    68    27    65   1
    69    27    66   1
    70    28    67   1
    71    28    68   1
    72    29    69   1
    73    29    70   1
    74    30    71   1
    75    30    72   1
    76    31    73   1
    77    31    74   1
    78    32    75   1
    79    32    76   1
    80    33    77   1
    81    33    78   1
    82    34    79   1
    83    34    80   1
    84    35    81   1
    85    35    82   1
    86    36    83   1
    87    36    84   1
@<TRIPOS>SUBSTRUCTURE
     1  E12      1

