@<TRIPOS>MOLECULE
1h23_ligand_026
    84    87
SMALL
GAST_HUCK
****
This file was generated by PARSER (from files_GN.cpp)

@<TRIPOS>ATOM
      1 C1          2.5957   69.0416   66.2125 C.2         1 E12       0.1811
      2 N2          1.7287   68.6318   65.2849 N.am        1 E12      -0.2230
      3 O7          2.2562   69.0547   67.3884 O.2         1 E12      -0.4310
      4 C4          3.2935   68.9366   63.5662 C.2         1 E12       0.0225
      5 C5          4.1705   69.4288   64.5222 C.2         1 E12      -0.0779
      6 C14         1.2230   68.6756   61.5993 C.3         1 E12      -0.0310
      7 N17         5.0123   68.0439   61.9657 N.4         1 E12       0.2346
      8 C24         5.2602   66.7267   62.6177 C.3         1 E12      -0.0329
      9 C6          3.8295   69.4764   65.8261 C.2         1 E12      -0.0278
     10 C9          0.9803   68.1906   63.0522 C.3         1 E12       0.0189
     11 C10         3.7327   68.8087   62.1557 C.3         1 E12      -0.0032
     12 C13         2.6525   68.2952   61.1473 C.3         1 E12      -0.0041
     13 C63         4.0506   65.7575   62.7215 C.3         1 E12      -0.0126
     14 C29         3.0699   56.2685   74.6029 C.2         1 E12       0.1811
     15 C3          2.0333   68.6070   63.9691 C.2         1 E12       0.0883
     16 N30         2.0960   56.6719   73.7899 N.am        1 E12      -0.2230
     17 C31         1.8640   57.9771   73.5243 C.2         1 E12       0.0883
     18 C32         2.6965   58.9254   74.0426 C.2         1 E12       0.0225
     19 C33         3.6814   58.5027   74.9187 C.2         1 E12      -0.0779
     20 C34         3.8762   57.1985   75.1923 C.2         1 E12      -0.0278
     21 O35         3.2450   55.0727   74.7734 O.2         1 E12      -0.4310
     22 C36         0.7268   58.2839   72.6683 C.3         1 E12       0.0189
     23 C37         2.5066   60.3645   73.7717 C.3         1 E12      -0.0032
     24 C38         1.4157   60.7116   72.7087 C.3         1 E12      -0.0041
     25 C39         0.2202   59.7414   72.8037 C.3         1 E12      -0.0310
     26 N40         3.7490   61.1178   73.4467 N.4         1 E12       0.2346
     27 C41         4.6392   60.6409   72.3546 C.3         1 E12      -0.0329
     28 C64         4.2325   64.5004   63.6166 C.3         1 E12      -0.0483
     29 C65         4.9477   64.6891   64.9859 C.3         1 E12      -0.0529
     30 C66         4.4320   65.8245   65.9147 C.3         1 E12      -0.0531
     31 C67         5.2387   65.9398   67.2424 C.3         1 E12      -0.0531
     32 C68         4.7418   64.9945   68.3699 C.3         1 E12      -0.0531
     33 C69         5.7762   64.8270   69.5219 C.3         1 E12      -0.0531
     34 C70         5.2076   64.2323   70.8383 C.3         1 E12      -0.0529
     35 C71         4.7956   62.7252   70.8068 C.3         1 E12      -0.0483
     36 C72         5.5172   61.8128   71.8475 C.3         1 E12      -0.0126
     37 H1          0.8496   68.3445   65.5697 H           1 E12       0.2526
     38 H2          5.0683   69.7615   64.2506 H           1 E12       0.0600
     39 H3          0.4867   68.2119   60.9277 H           1 E12       0.0298
     40 H4          1.1077   69.7676   61.5519 H           1 E12       0.0298
     41 H5          5.7631   68.6584   62.2970 H           1 E12       0.2022
     42 H6          5.1665   67.9229   60.9637 H           1 E12       0.2022
     43 H7          5.6664   66.9198   63.6111 H           1 E12       0.0814
     44 H8          6.0555   66.2370   62.0504 H           1 E12       0.0814
     45 H9          4.4643   69.8471   66.4931 H           1 E12       0.0298
     46 H10         0.0189   68.5986   63.3820 H           1 E12       0.0511
     47 H11         0.9146   67.0960   63.0717 H           1 E12       0.0511
     48 H12         3.9585   69.8325   61.8322 H           1 E12       0.0913
     49 H13         2.7105   67.1991   61.0549 H           1 E12       0.0333
     50 H14         2.8417   68.7126   60.1545 H           1 E12       0.0333
     51 H15         3.8008   65.4226   61.7099 H           1 E12       0.0317
     52 H16         3.1910   66.3007   63.1066 H           1 E12       0.0317
     53 H17         1.5284   56.0004   73.3757 H           1 E12       0.2526
     54 H18         4.2677   59.1721   75.3628 H           1 E12       0.0600
     55 H19         4.5933   56.9207   75.8228 H           1 E12       0.0298
     56 H20        -0.1084   57.6153   72.9025 H           1 E12       0.0511
     57 H21         1.0307   58.0977   71.6350 H           1 E12       0.0511
     58 H22         2.1509   60.7931   74.7137 H           1 E12       0.0913
     59 H23         1.8270   60.6506   71.6983 H           1 E12       0.0333
     60 H24         1.0635   61.7362   72.8575 H           1 E12       0.0333
     61 H25        -0.2796   59.8716   73.7683 H           1 E12       0.0298
     62 H26        -0.5005   59.9596   72.0124 H           1 E12       0.0298
     63 H27         3.4648   62.0745   73.2243 H           1 E12       0.2022
     64 H28         4.3180   61.1635   74.2944 H           1 E12       0.2022
     65 H29         5.2925   59.8587   72.7503 H           1 E12       0.0814
     66 H30         4.0754   60.2169   71.5203 H           1 E12       0.0814
     67 H31         4.7935   63.7529   63.0451 H           1 E12       0.0267
     68 H32         3.2393   64.0778   63.7968 H           1 E12       0.0267
     69 H33         6.0071   64.8596   64.7767 H           1 E12       0.0265
     70 H34         4.8659   63.7439   65.5276 H           1 E12       0.0265
     71 H35         3.3700   65.6772   66.1231 H           1 E12       0.0265
     72 H36         4.5292   66.7714   65.3914 H           1 E12       0.0265
     73 H37         5.1623   66.9667   67.6122 H           1 E12       0.0265
     74 H38         6.2990   65.7520   67.0488 H           1 E12       0.0265
     75 H39         4.5226   64.0088   67.9534 H           1 E12       0.0265
     76 H40         3.8079   65.3992   68.7722 H           1 E12       0.0265
     77 H41         6.1940   65.8071   69.7691 H           1 E12       0.0265
     78 H42         6.6029   64.2005   69.1748 H           1 E12       0.0265
     79 H43         4.3334   64.8290   71.1158 H           1 E12       0.0265
     80 H44         5.9532   64.4033   71.6184 H           1 E12       0.0265
     81 H45         4.9737   62.2991   69.8169 H           1 E12       0.0267
     82 H46         3.7148   62.6797   70.9682 H           1 E12       0.0267
     83 H47         5.8309   62.3922   72.7207 H           1 E12       0.0317
     84 H48         6.4232   61.4057   71.3862 H           1 E12       0.0317
@<TRIPOS>BOND
     1     1     9   1
     2     1     3   2
     3     1     2  am
     4     2    15   1
     5    15    10   1
     6    15     4   2
     7     4    11   1
     8     4     5   1
     9     5     9   2
    10    11     7   1
    11    11    12   1
    12    12     6   1
    13     6    10   1
    14     7     8   1
    15     8    13   1
    16    13    28   1
    17    28    29   1
    18    29    30   1
    19    30    31   1
    20    31    32   1
    21    32    33   1
    22    33    34   1
    23    34    35   1
    24    35    36   1
    25    36    27   1
    26    27    26   1
    27    26    23   1
    28    23    24   1
    29    23    18   1
    30    18    19   1
    31    18    17   2
    32    17    22   1
    33    17    16   1
    34    16    14  am
    35    14    20   1
    36    14    21   2
    37    20    19   2
    38    22    25   1
    39    25    24   1
    40     2    37   1
    41     5    38   1
    42     6    39   1
    43     6    40   1
    44     7    41   1
    45     7    42   1
    46     8    43   1
    47     8    44   1
    48     9    45   1
    49    10    46   1
    50    10    47   1
    51    11    48   1
    52    12    49   1
    53    12    50   1
    54    13    51   1
    55    13    52   1
    56    16    53   1
    57    19    54   1
    58    20    55   1
    59    22    56   1
    60    22    57   1
    61    23    58   1
    62    24    59   1
    63    24    60   1
    64    25    61   1
    65    25    62   1
    66    26    63   1
    67    26    64   1
    68    27    65   1
    69    27    66   1
    70    28    67   1
    71    28    68   1
    72    29    69   1
    73    29    70   1
    74    30    71   1
    75    30    72   1
    76    31    73   1
    77    31    74   1
    78    32    75   1
    79    32    76   1
    80    33    77   1
    81    33    78   1
    82    34    79   1
    83    34    80   1
    84    35    81   1
    85    35    82   1
    86    36    83   1
    87    36    84   1
@<TRIPOS>SUBSTRUCTURE
     1  E12      1

