@<TRIPOS>MOLECULE
1h23_ligand_048
    84    87
SMALL
GAST_HUCK
****
This file was generated by PARSER (from files_GN.cpp)

@<TRIPOS>ATOM
      1 C1          2.4777   68.4011   60.8537 C.2         1 E12       0.1811
      2 N2          3.7813   68.1662   61.0055 N.am        1 E12      -0.2230
      3 O7          1.9734   68.2747   59.7516 O.2         1 E12      -0.4310
      4 C4          3.6884   68.6563   63.2931 C.2         1 E12       0.0225
      5 C5          2.3346   68.8967   63.1341 C.2         1 E12      -0.0779
      6 C14         6.4636   67.9187   63.6333 C.3         1 E12      -0.0310
      7 N17         3.8681   67.6517   65.4665 N.4         1 E12       0.2346
      8 C24         3.9911   67.7812   66.9445 C.3         1 E12      -0.0329
      9 C6          1.7347   68.7793   61.9313 C.2         1 E12      -0.0278
     10 C9          5.8387   68.0004   62.2181 C.3         1 E12       0.0189
     11 C10         4.2943   68.8145   64.6279 C.3         1 E12      -0.0032
     12 C13         5.8442   68.9840   64.5624 C.3         1 E12      -0.0041
     13 C63         3.2275   66.6430   67.6833 C.3         1 E12      -0.0126
     14 C29         0.6829   52.9420   73.8438 C.2         1 E12       0.1811
     15 C3          4.4028   68.2656   62.2001 C.2         1 E12       0.0883
     16 N30        -0.2587   53.8687   73.6434 N.am        1 E12      -0.2230
     17 C31        -0.0063   55.1938   73.7469 C.2         1 E12       0.0883
     18 C32         1.2645   55.6238   73.9900 C.2         1 E12       0.0225
     19 C33         2.2245   54.6642   74.2511 C.2         1 E12      -0.0779
     20 C34         1.9428   53.3440   74.1795 C.2         1 E12      -0.0278
     21 O35         0.3889   51.7554   73.7551 O.2         1 E12      -0.4310
     22 C36        -1.1427   56.0925   73.5960 C.3         1 E12       0.0189
     23 C37         1.6138   57.0560   74.0813 C.3         1 E12      -0.0032
     24 C38         0.4393   58.0560   73.8121 C.3         1 E12      -0.0041
     25 C39        -0.9253   57.4785   74.2531 C.3         1 E12      -0.0310
     26 N40         2.8138   57.4545   73.2812 N.4         1 E12       0.2346
     27 C41         2.8257   57.2235   71.8087 C.3         1 E12      -0.0329
     28 C64         3.9463   65.2568   67.7319 C.3         1 E12      -0.0483
     29 C65         5.0444   65.0923   68.8311 C.3         1 E12      -0.0529
     30 C66         4.5592   65.0134   70.3134 C.3         1 E12      -0.0531
     31 C67         3.7491   63.7400   70.7154 C.3         1 E12      -0.0531
     32 C68         4.5752   62.4090   70.8036 C.3         1 E12      -0.0531
     33 C69         4.2339   61.3293   69.7296 C.3         1 E12      -0.0531
     34 C70         2.8199   60.6799   69.8442 C.3         1 E12      -0.0529
     35 C71         2.5744   59.7066   71.0384 C.3         1 E12      -0.0483
     36 C72         3.4577   58.4169   71.0336 C.3         1 E12      -0.0126
     37 H1          4.3134   67.9140   60.2314 H           1 E12       0.2526
     38 H2          1.7812   69.1745   63.9137 H           1 E12       0.0600
     39 H3          6.2826   66.9261   64.0523 H           1 E12       0.0298
     40 H4          7.5438   68.0619   63.5639 H           1 E12       0.0298
     41 H5          4.3932   66.8228   65.1744 H           1 E12       0.2022
     42 H6          2.8767   67.4776   65.2723 H           1 E12       0.2022
     43 H7          3.5444   68.7348   67.2572 H           1 E12       0.0814
     44 H8          5.0474   67.7780   67.2358 H           1 E12       0.0814
     45 H9          0.7674   68.9769   61.8366 H           1 E12       0.0298
     46 H10         6.3314   68.8005   61.6584 H           1 E12       0.0511
     47 H11         6.0407   67.0574   61.7014 H           1 E12       0.0511
     48 H12         3.9044   69.7364   65.0779 H           1 E12       0.0913
     49 H13         6.2842   68.8966   65.5565 H           1 E12       0.0333
     50 H14         6.0805   69.9797   64.1653 H           1 E12       0.0333
     51 H15         2.2566   66.5079   67.1847 H           1 E12       0.0317
     52 H16         3.0118   66.9779   68.7039 H           1 E12       0.0317
     53 H17        -1.1602   53.5757   73.4320 H           1 E12       0.2526
     54 H18         3.1262   54.9367   74.5537 H           1 E12       0.0600
     55 H19         2.6354   52.6677   74.4121 H           1 E12       0.0298
     56 H20        -2.0312   55.6424   74.0509 H           1 E12       0.0511
     57 H21        -1.3229   56.2126   72.5250 H           1 E12       0.0511
     58 H22         1.9008   57.2135   75.1279 H           1 E12       0.0913
     59 H23         0.3697   58.2857   72.7480 H           1 E12       0.0333
     60 H24         0.6241   58.9969   74.3429 H           1 E12       0.0333
     61 H25        -0.9511   57.3842   75.3470 H           1 E12       0.0298
     62 H26        -1.7257   58.1588   73.9437 H           1 E12       0.0298
     63 H27         2.9619   58.4547   73.4548 H           1 E12       0.2022
     64 H28         3.6270   56.9457   73.6507 H           1 E12       0.2022
     65 H29         3.4417   56.3356   71.6202 H           1 E12       0.0814
     66 H30         1.8245   57.0151   71.4097 H           1 E12       0.0814
     67 H31         4.4076   65.0735   66.7545 H           1 E12       0.0267
     68 H32         3.1902   64.4809   67.8764 H           1 E12       0.0267
     69 H33         5.7420   65.9312   68.7457 H           1 E12       0.0265
     70 H34         5.6123   64.1833   68.6093 H           1 E12       0.0265
     71 H35         3.9423   65.8913   70.5350 H           1 E12       0.0265
     72 H36         5.4425   65.0745   70.9633 H           1 E12       0.0265
     73 H37         2.8963   63.6367   70.0354 H           1 E12       0.0265
     74 H38         3.3328   63.9330   71.7130 H           1 E12       0.0265
     75 H39         4.4352   61.9626   71.7973 H           1 E12       0.0265
     76 H40         5.6475   62.6253   70.7141 H           1 E12       0.0265
     77 H41         4.9868   60.5313   69.7789 H           1 E12       0.0265
     78 H42         4.3209   61.7936   68.7391 H           1 E12       0.0265
     79 H43         2.6286   60.1223   68.9180 H           1 E12       0.0265
     80 H44         2.0647   61.4719   69.9055 H           1 E12       0.0265
     81 H45         1.5172   59.4157   70.9785 H           1 E12       0.0267
     82 H46         2.7119   60.2462   71.9879 H           1 E12       0.0267
     83 H47         4.4396   58.6522   71.4688 H           1 E12       0.0317
     84 H48         3.6260   58.0902   69.9981 H           1 E12       0.0317
@<TRIPOS>BOND
     1     1     9   1
     2     1     3   2
     3     1     2  am
     4     2    15   1
     5    15    10   1
     6    15     4   2
     7     4    11   1
     8     4     5   1
     9     5     9   2
    10    11     7   1
    11    11    12   1
    12    12     6   1
    13     6    10   1
    14     7     8   1
    15     8    13   1
    16    13    28   1
    17    28    29   1
    18    29    30   1
    19    30    31   1
    20    31    32   1
    21    32    33   1
    22    33    34   1
    23    34    35   1
    24    35    36   1
    25    36    27   1
    26    27    26   1
    27    26    23   1
    28    23    24   1
    29    23    18   1
    30    18    19   1
    31    18    17   2
    32    17    22   1
    33    17    16   1
    34    16    14  am
    35    14    20   1
    36    14    21   2
    37    20    19   2
    38    22    25   1
    39    25    24   1
    40     2    37   1
    41     5    38   1
    42     6    39   1
    43     6    40   1
    44     7    41   1
    45     7    42   1
    46     8    43   1
    47     8    44   1
    48     9    45   1
    49    10    46   1
    50    10    47   1
    51    11    48   1
    52    12    49   1
    53    12    50   1
    54    13    51   1
    55    13    52   1
    56    16    53   1
    57    19    54   1
    58    20    55   1
    59    22    56   1
    60    22    57   1
    61    23    58   1
    62    24    59   1
    63    24    60   1
    64    25    61   1
    65    25    62   1
    66    26    63   1
    67    26    64   1
    68    27    65   1
    69    27    66   1
    70    28    67   1
    71    28    68   1
    72    29    69   1
    73    29    70   1
    74    30    71   1
    75    30    72   1
    76    31    73   1
    77    31    74   1
    78    32    75   1
    79    32    76   1
    80    33    77   1
    81    33    78   1
    82    34    79   1
    83    34    80   1
    84    35    81   1
    85    35    82   1
    86    36    83   1
    87    36    84   1
@<TRIPOS>SUBSTRUCTURE
     1  E12      1

