@<TRIPOS>MOLECULE
1h23_ligand_022
    84    87
SMALL
GAST_HUCK
****
This file was generated by PARSER (from files_GN.cpp)

@<TRIPOS>ATOM
      1 C1         -0.6036   60.6951   74.6206 C.2         1 E12       0.1811
      2 N2          0.5749   60.7259   75.2451 N.am        1 E12      -0.2230
      3 O7         -1.3578   61.6523   74.7151 O.2         1 E12      -0.4310
      4 C4          1.1560   58.6036   74.4425 C.2         1 E12       0.0225
      5 C5         -0.0657   58.5704   73.7996 C.2         1 E12      -0.0779
      6 C14         3.6872   58.6703   75.8918 C.3         1 E12      -0.0310
      7 N17         2.9677   57.5833   73.1401 N.4         1 E12       0.2346
      8 C24         2.3614   57.5727   71.7879 C.3         1 E12      -0.0329
      9 C6         -0.9400   59.5934   73.8882 C.2         1 E12      -0.0278
     10 C9          2.6635   59.8352   75.9972 C.3         1 E12       0.0189
     11 C10         2.0793   57.4636   74.3287 C.3         1 E12      -0.0032
     12 C13         2.9747   57.3292   75.5947 C.3         1 E12      -0.0041
     13 C63         3.4911   57.6939   70.7196 C.3         1 E12      -0.0126
     14 C29         2.5023   68.4221   60.7905 C.2         1 E12       0.1811
     15 C3          1.4624   59.7123   75.1814 C.2         1 E12       0.0883
     16 N30         3.8045   68.1900   60.9590 N.am        1 E12      -0.2230
     17 C31         4.4075   68.2790   62.1657 C.2         1 E12       0.0883
     18 C32         3.6547   68.5340   63.2744 C.2         1 E12       0.0225
     19 C33         2.3151   68.8462   63.0774 C.2         1 E12      -0.0779
     20 C34         1.7415   68.7741   61.8602 C.2         1 E12      -0.0278
     21 O35         2.0215   68.3499   59.6710 O.2         1 E12      -0.4310
     22 C36         5.8572   68.1286   62.1935 C.3         1 E12       0.0189
     23 C37         4.2471   68.6534   64.6255 C.3         1 E12      -0.0032
     24 C38         5.7221   68.1307   64.7199 C.3         1 E12      -0.0041
     25 C39         6.5415   68.5980   63.5062 C.3         1 E12      -0.0310
     26 N40         3.3664   68.1061   65.7187 N.4         1 E12       0.2346
     27 C41         3.5937   66.7250   66.2380 C.3         1 E12      -0.0329
     28 C64         3.2635   58.7383   69.5923 C.3         1 E12      -0.0483
     29 C65         3.1494   60.2339   70.0132 C.3         1 E12      -0.0529
     30 C66         4.3850   60.7984   70.7664 C.3         1 E12      -0.0531
     31 C67         4.2196   62.2529   71.3031 C.3         1 E12      -0.0531
     32 C68         5.2341   63.3043   70.7618 C.3         1 E12      -0.0531
     33 C69         4.8153   64.0361   69.4569 C.3         1 E12      -0.0531
     34 C70         5.8995   65.0187   68.9275 C.3         1 E12      -0.0529
     35 C71         5.5950   65.5540   67.4901 C.3         1 E12      -0.0483
     36 C72         4.5705   66.7329   67.4642 C.3         1 E12      -0.0126
     37 H1          0.8020   61.5102   75.7673 H           1 E12       0.2526
     38 H2         -0.3280   57.7912   73.2451 H           1 E12       0.0600
     39 H3          4.4026   58.8853   75.0931 H           1 E12       0.0298
     40 H4          4.2535   58.5871   76.8228 H           1 E12       0.0298
     41 H5          3.6388   56.8061   73.1750 H           1 E12       0.2022
     42 H6          3.4876   58.4591   73.2324 H           1 E12       0.2022
     43 H7          1.6563   58.4062   71.7004 H           1 E12       0.0814
     44 H8          1.8024   56.6396   71.6376 H           1 E12       0.0814
     45 H9         -1.8229   59.5476   73.4186 H           1 E12       0.0298
     46 H10         2.3412   59.9076   77.0404 H           1 E12       0.0511
     47 H11         3.1744   60.7695   75.7424 H           1 E12       0.0511
     48 H12         1.5140   56.5265   74.2482 H           1 E12       0.0913
     49 H13         3.7192   56.5378   75.4535 H           1 E12       0.0333
     50 H14         2.3541   57.0527   76.4537 H           1 E12       0.0333
     51 H15         3.6169   56.7190   70.2529 H           1 E12       0.0317
     52 H16         4.4430   57.9290   71.2014 H           1 E12       0.0317
     53 H17         4.3563   67.9779   60.1885 H           1 E12       0.2526
     54 H18         1.7551   69.1823   63.8306 H           1 E12       0.0600
     55 H19         0.7819   69.0123   61.7437 H           1 E12       0.0298
     56 H20         6.3020   68.7157   61.3872 H           1 E12       0.0511
     57 H21         6.0946   67.0757   62.0263 H           1 E12       0.0511
     58 H22         4.2856   69.7298   64.8252 H           1 E12       0.0913
     59 H23         5.7568   67.0386   64.7227 H           1 E12       0.0333
     60 H24         6.1739   68.4957   65.6429 H           1 E12       0.0333
     61 H25         6.6186   69.6950   63.5302 H           1 E12       0.0298
     62 H26         7.5477   68.1687   63.5700 H           1 E12       0.0298
     63 H27         3.4032   68.7665   66.5198 H           1 E12       0.2022
     64 H28         2.3967   68.1169   65.3779 H           1 E12       0.2022
     65 H29         2.6298   66.3309   66.5796 H           1 E12       0.0814
     66 H30         3.9422   66.0612   65.4316 H           1 E12       0.0814
     67 H31         2.3581   58.4710   69.0391 H           1 E12       0.0267
     68 H32         4.1008   58.6549   68.8941 H           1 E12       0.0267
     69 H33         2.2563   60.3723   70.6344 H           1 E12       0.0265
     70 H34         2.9943   60.8206   69.1030 H           1 E12       0.0265
     71 H35         5.2651   60.7382   70.1231 H           1 E12       0.0265
     72 H36         4.5722   60.1637   71.6332 H           1 E12       0.0265
     73 H37         4.3631   62.2206   72.3890 H           1 E12       0.0265
     74 H38         3.2021   62.6145   71.1362 H           1 E12       0.0265
     75 H39         6.2033   62.8147   70.6059 H           1 E12       0.0265
     76 H40         5.3907   64.0656   71.5393 H           1 E12       0.0265
     77 H41         3.8872   64.5789   69.6433 H           1 E12       0.0265
     78 H42         4.6254   63.2922   68.6822 H           1 E12       0.0265
     79 H43         6.8610   64.4919   68.8969 H           1 E12       0.0265
     80 H44         6.0148   65.8665   69.6215 H           1 E12       0.0265
     81 H45         5.2432   64.7215   66.8630 H           1 E12       0.0267
     82 H46         6.5397   65.9139   67.0579 H           1 E12       0.0267
     83 H47         5.1564   67.6775   67.4836 H           1 E12       0.0317
     84 H48         3.9656   66.7212   68.3878 H           1 E12       0.0317
@<TRIPOS>BOND
     1     1     9   1
     2     1     3   2
     3     1     2  am
     4     2    15   1
     5    15    10   1
     6    15     4   2
     7     4    11   1
     8     4     5   1
     9     5     9   2
    10    11     7   1
    11    11    12   1
    12    12     6   1
    13     6    10   1
    14     7     8   1
    15     8    13   1
    16    13    28   1
    17    28    29   1
    18    29    30   1
    19    30    31   1
    20    31    32   1
    21    32    33   1
    22    33    34   1
    23    34    35   1
    24    35    36   1
    25    36    27   1
    26    27    26   1
    27    26    23   1
    28    23    24   1
    29    23    18   1
    30    18    19   1
    31    18    17   2
    32    17    22   1
    33    17    16   1
    34    16    14  am
    35    14    20   1
    36    14    21   2
    37    20    19   2
    38    22    25   1
    39    25    24   1
    40     2    37   1
    41     5    38   1
    42     6    39   1
    43     6    40   1
    44     7    41   1
    45     7    42   1
    46     8    43   1
    47     8    44   1
    48     9    45   1
    49    10    46   1
    50    10    47   1
    51    11    48   1
    52    12    49   1
    53    12    50   1
    54    13    51   1
    55    13    52   1
    56    16    53   1
    57    19    54   1
    58    20    55   1
    59    22    56   1
    60    22    57   1
    61    23    58   1
    62    24    59   1
    63    24    60   1
    64    25    61   1
    65    25    62   1
    66    26    63   1
    67    26    64   1
    68    27    65   1
    69    27    66   1
    70    28    67   1
    71    28    68   1
    72    29    69   1
    73    29    70   1
    74    30    71   1
    75    30    72   1
    76    31    73   1
    77    31    74   1
    78    32    75   1
    79    32    76   1
    80    33    77   1
    81    33    78   1
    82    34    79   1
    83    34    80   1
    84    35    81   1
    85    35    82   1
    86    36    83   1
    87    36    84   1
@<TRIPOS>SUBSTRUCTURE
     1  E12      1

