@<TRIPOS>MOLECULE
1h23_ligand_005
    84    87
SMALL
GAST_HUCK
****
This file was generated by PARSER (from files_GN.cpp)

@<TRIPOS>ATOM
      1 C1          4.7261   63.0989   63.9496 C.2         1 E12       0.1811
      2 N2          5.1317   64.1159   63.1870 N.am        1 E12      -0.2230
      3 O7          5.3836   62.0668   63.9771 O.2         1 E12      -0.4310
      4 C4          3.3632   65.4685   63.9017 C.2         1 E12       0.0225
      5 C5          2.9262   64.3971   64.6666 C.2         1 E12      -0.0779
      6 C14         4.3739   67.7188   62.2855 C.3         1 E12      -0.0310
      7 N17         3.0035   67.3824   65.3572 N.4         1 E12       0.2346
      8 C24         4.3992   67.4420   65.8727 C.3         1 E12      -0.0329
      9 C6          3.5938   63.2269   64.6901 C.2         1 E12      -0.0278
     10 C9          4.9447   66.2803   62.1599 C.3         1 E12       0.0189
     11 C10         2.7051   66.7724   64.0300 C.3         1 E12      -0.0032
     12 C13         2.9233   67.7307   62.8193 C.3         1 E12      -0.0041
     13 C63         4.5553   66.7503   67.2505 C.3         1 E12      -0.0126
     14 C29         3.9358   57.5625   70.8791 C.2         1 E12       0.1811
     15 C3          4.4641   65.2908   63.1227 C.2         1 E12       0.0883
     16 N30         3.9195   57.8608   72.1755 N.am        1 E12      -0.2230
     17 C31         3.3198   58.9727   72.6638 C.2         1 E12       0.0883
     18 C32         2.6285   59.7848   71.8161 C.2         1 E12       0.0225
     19 C33         2.7158   59.5123   70.4602 C.2         1 E12      -0.0779
     20 C34         3.3428   58.4142   69.9926 C.2         1 E12      -0.0278
     21 O35         4.4756   56.5312   70.5106 O.2         1 E12      -0.4310
     22 C36         3.4387   59.2205   74.0918 C.3         1 E12       0.0189
     23 C37         1.8362   60.9426   72.2827 C.3         1 E12      -0.0032
     24 C38         1.8397   61.1571   73.8323 C.3         1 E12      -0.0041
     25 C39         3.1608   60.6932   74.4823 C.3         1 E12      -0.0310
     26 N40         0.4302   60.7992   71.7979 N.4         1 E12       0.2346
     27 C41        -0.5046   61.9471   71.9232 C.3         1 E12      -0.0329
     28 C64         5.6090   65.6062   67.2614 C.3         1 E12      -0.0483
     29 C65         6.0416   65.0893   68.6710 C.3         1 E12      -0.0529
     30 C66         5.0594   64.0927   69.3748 C.3         1 E12      -0.0531
     31 C67         4.2855   64.6593   70.5949 C.3         1 E12      -0.0531
     32 C68         3.2219   65.7403   70.2781 C.3         1 E12      -0.0531
     33 C69         1.8884   65.2445   69.6271 C.3         1 E12      -0.0531
     34 C70         0.6153   65.5069   70.4879 C.3         1 E12      -0.0529
     35 C71         0.2988   64.3970   71.5286 C.3         1 E12      -0.0483
     36 C72        -0.2479   63.0912   70.8951 C.3         1 E12      -0.0126
     37 H1          5.9421   64.0108   62.6630 H           1 E12       0.2526
     38 H2          2.1066   64.4883   65.2232 H           1 E12       0.0600
     39 H3          5.0108   68.3154   62.9322 H           1 E12       0.0298
     40 H4          4.4010   68.2031   61.3030 H           1 E12       0.0298
     41 H5          2.4390   66.8736   66.0481 H           1 E12       0.2022
     42 H6          2.6520   68.3457   65.3421 H           1 E12       0.2022
     43 H7          4.6722   68.4909   65.9819 H           1 E12       0.0814
     44 H8          5.1128   66.9785   65.2047 H           1 E12       0.0814
     45 H9          3.2580   62.4738   65.2445 H           1 E12       0.0298
     46 H10         4.6869   65.8980   61.1676 H           1 E12       0.0511
     47 H11         6.0363   66.3393   62.2117 H           1 E12       0.0511
     48 H12         1.6267   66.5960   64.0362 H           1 E12       0.0913
     49 H13         2.6446   68.7504   63.0870 H           1 E12       0.0333
     50 H14         2.2715   67.4205   61.9926 H           1 E12       0.0333
     51 H15         3.5764   66.3725   67.5815 H           1 E12       0.0317
     52 H16         4.8597   67.5028   67.9792 H           1 E12       0.0317
     53 H17         4.3581   57.2505   72.7934 H           1 E12       0.2526
     54 H18         2.3190   60.1447   69.7958 H           1 E12       0.0600
     55 H19         3.3878   58.2419   69.0126 H           1 E12       0.0298
     56 H20         4.4497   58.9734   74.4302 H           1 E12       0.0511
     57 H21         2.7412   58.5635   74.6175 H           1 E12       0.0511
     58 H22         2.2892   61.8280   71.8215 H           1 E12       0.0913
     59 H23         1.0214   60.5932   74.2885 H           1 E12       0.0333
     60 H24         1.6824   62.2156   74.0615 H           1 E12       0.0333
     61 H25         3.9811   61.3310   74.1378 H           1 E12       0.0298
     62 H26         3.0920   60.7835   75.5690 H           1 E12       0.0298
     63 H27         0.4577   60.5600   70.8069 H           1 E12       0.2022
     64 H28         0.0132   60.0044   72.2884 H           1 E12       0.2022
     65 H29        -1.5017   61.5426   71.7411 H           1 E12       0.0814
     66 H30        -0.5135   62.3248   72.9453 H           1 E12       0.0814
     67 H31         6.5016   65.9791   66.7552 H           1 E12       0.0267
     68 H32         5.2247   64.7841   66.6525 H           1 E12       0.0267
     69 H33         6.2450   65.9208   69.3406 H           1 E12       0.0265
     70 H34         6.9884   64.5681   68.5432 H           1 E12       0.0265
     71 H35         5.6557   63.2580   69.7681 H           1 E12       0.0265
     72 H36         4.3654   63.6525   68.6524 H           1 E12       0.0265
     73 H37         5.0176   65.1010   71.2731 H           1 E12       0.0265
     74 H38         3.7960   63.8449   71.1247 H           1 E12       0.0265
     75 H39         3.6766   66.4916   69.6111 H           1 E12       0.0265
     76 H40         3.0067   66.2856   71.2114 H           1 E12       0.0265
     77 H41         1.9562   64.1893   69.3864 H           1 E12       0.0265
     78 H42         1.7623   65.7731   68.6731 H           1 E12       0.0265
     79 H43        -0.2418   65.6258   69.8203 H           1 E12       0.0265
     80 H44         0.7314   66.4637   71.0148 H           1 E12       0.0265
     81 H45        -0.4632   64.7850   72.2095 H           1 E12       0.0267
     82 H46         1.1894   64.1878   72.1213 H           1 E12       0.0267
     83 H47         0.4326   62.7370   70.1178 H           1 E12       0.0317
     84 H48        -1.1932   63.3252   70.3994 H           1 E12       0.0317
@<TRIPOS>BOND
     1     1     9   1
     2     1     3   2
     3     1     2  am
     4     2    15   1
     5    15    10   1
     6    15     4   2
     7     4    11   1
     8     4     5   1
     9     5     9   2
    10    11     7   1
    11    11    12   1
    12    12     6   1
    13     6    10   1
    14     7     8   1
    15     8    13   1
    16    13    28   1
    17    28    29   1
    18    29    30   1
    19    30    31   1
    20    31    32   1
    21    32    33   1
    22    33    34   1
    23    34    35   1
    24    35    36   1
    25    36    27   1
    26    27    26   1
    27    26    23   1
    28    23    24   1
    29    23    18   1
    30    18    19   1
    31    18    17   2
    32    17    22   1
    33    17    16   1
    34    16    14  am
    35    14    20   1
    36    14    21   2
    37    20    19   2
    38    22    25   1
    39    25    24   1
    40     2    37   1
    41     5    38   1
    42     6    39   1
    43     6    40   1
    44     7    41   1
    45     7    42   1
    46     8    43   1
    47     8    44   1
    48     9    45   1
    49    10    46   1
    50    10    47   1
    51    11    48   1
    52    12    49   1
    53    12    50   1
    54    13    51   1
    55    13    52   1
    56    16    53   1
    57    19    54   1
    58    20    55   1
    59    22    56   1
    60    22    57   1
    61    23    58   1
    62    24    59   1
    63    24    60   1
    64    25    61   1
    65    25    62   1
    66    26    63   1
    67    26    64   1
    68    27    65   1
    69    27    66   1
    70    28    67   1
    71    28    68   1
    72    29    69   1
    73    29    70   1
    74    30    71   1
    75    30    72   1
    76    31    73   1
    77    31    74   1
    78    32    75   1
    79    32    76   1
    80    33    77   1
    81    33    78   1
    82    34    79   1
    83    34    80   1
    84    35    81   1
    85    35    82   1
    86    36    83   1
    87    36    84   1
@<TRIPOS>SUBSTRUCTURE
     1  E12      1

