@<TRIPOS>MOLECULE
1h23_ligand_023
    84    87
SMALL
GAST_HUCK
****
This file was generated by PARSER (from files_GN.cpp)

@<TRIPOS>ATOM
      1 C1          1.5946   69.2975   62.1138 C.2         1 E12       0.1811
      2 N2          2.8643   69.1251   61.7454 N.am        1 E12      -0.2230
      3 O7          0.7494   69.5694   61.2721 O.2         1 E12      -0.4310
      4 C4          3.5397   68.6768   63.9490 C.2         1 E12       0.0225
      5 C5          2.2343   68.9282   64.3294 C.2         1 E12      -0.0779
      6 C14         6.3114   68.8384   63.1767 C.3         1 E12      -0.0310
      7 N17         4.0470   67.1690   65.7978 N.4         1 E12       0.2346
      8 C24         4.8478   66.7609   66.9797 C.3         1 E12      -0.0329
      9 C6          1.2652   69.2069   63.4337 C.2         1 E12      -0.0278
     10 C9          5.2038   68.7549   62.0961 C.3         1 E12       0.0189
     11 C10         4.5473   68.3046   64.9651 C.3         1 E12      -0.0032
     12 C13         5.9485   67.9438   64.3752 C.3         1 E12      -0.0041
     13 C63         4.0731   65.7264   67.8378 C.3         1 E12      -0.0126
     14 C29        -3.0344   66.1498   75.8148 C.2         1 E12       0.1811
     15 C3          3.8506   68.8539   62.6329 C.2         1 E12       0.0883
     16 N30        -1.7897   66.1166   75.3403 N.am        1 E12      -0.2230
     17 C31        -0.9244   65.1198   75.6361 C.2         1 E12       0.0883
     18 C32        -1.3264   64.1175   76.4685 C.2         1 E12       0.0225
     19 C33        -2.6158   64.1618   76.9683 C.2         1 E12      -0.0779
     20 C34        -3.4597   65.1633   76.6519 C.2         1 E12      -0.0278
     21 O35        -3.7849   67.0574   75.4978 O.2         1 E12      -0.4310
     22 C36         0.4157   65.2240   75.0652 C.3         1 E12       0.0189
     23 C37        -0.4344   63.0290   76.8993 C.3         1 E12      -0.0032
     24 C38         1.0849   63.2835   76.6032 C.3         1 E12      -0.0041
     25 C39         1.3170   63.9703   75.2354 C.3         1 E12      -0.0310
     26 N40        -0.9257   61.6710   76.5117 N.4         1 E12       0.2346
     27 C41        -0.7836   61.1284   75.1283 C.3         1 E12      -0.0329
     28 C64         4.8407   65.2479   69.1046 C.3         1 E12      -0.0483
     29 C65         4.0169   65.2339   70.4211 C.3         1 E12      -0.0529
     30 C66         2.5935   64.6060   70.3762 C.3         1 E12      -0.0531
     31 C67         2.5600   63.1265   69.8853 C.3         1 E12      -0.0531
     32 C68         1.2401   62.3645   70.2059 C.3         1 E12      -0.0531
     33 C69         0.9202   62.2430   71.7269 C.3         1 E12      -0.0531
     34 C70         0.0504   61.0067   72.1303 C.3         1 E12      -0.0529
     35 C71        -1.4002   61.3180   72.6019 C.3         1 E12      -0.0483
     36 C72        -1.5535   61.9144   74.0305 C.3         1 E12      -0.0126
     37 H1          3.0883   69.2175   60.8018 H           1 E12       0.2526
     38 H2          1.9833   68.9219   65.2927 H           1 E12       0.0600
     39 H3          7.2673   68.5198   62.7514 H           1 E12       0.0298
     40 H4          6.4172   69.8773   63.5150 H           1 E12       0.0298
     41 H5          3.9436   66.3470   65.1916 H           1 E12       0.2022
     42 H6          3.1145   67.4129   66.1478 H           1 E12       0.2022
     43 H7          5.0586   67.6374   67.6021 H           1 E12       0.0814
     44 H8          5.8022   66.3356   66.6476 H           1 E12       0.0814
     45 H9          0.3329   69.3833   63.7359 H           1 E12       0.0298
     46 H10         5.3763   69.5606   61.3770 H           1 E12       0.0511
     47 H11         5.2920   67.8037   61.5621 H           1 E12       0.0511
     48 H12         4.6671   69.1824   65.6115 H           1 E12       0.0913
     49 H13         5.9518   66.9007   64.0417 H           1 E12       0.0333
     50 H14         6.7162   68.0514   65.1451 H           1 E12       0.0333
     51 H15         3.8399   64.8574   67.2128 H           1 E12       0.0317
     52 H16         3.1203   66.1880   68.1176 H           1 E12       0.0317
     53 H17        -1.4981   66.8364   74.7566 H           1 E12       0.2526
     54 H18        -2.9311   63.4547   77.5980 H           1 E12       0.0600
     55 H19        -4.3786   65.1771   77.0362 H           1 E12       0.0298
     56 H20         0.9119   66.0827   75.5275 H           1 E12       0.0511
     57 H21         0.3222   65.4247   73.9924 H           1 E12       0.0511
     58 H22        -0.4829   63.0167   77.9992 H           1 E12       0.0913
     59 H23         1.6461   62.3394   76.6479 H           1 E12       0.0333
     60 H24         1.4926   63.9479   77.3832 H           1 E12       0.0333
     61 H25         2.3721   64.2609   75.1570 H           1 E12       0.0298
     62 H26         1.1051   63.2638   74.4294 H           1 E12       0.0298
     63 H27        -0.4347   61.0065   77.1245 H           1 E12       0.2022
     64 H28        -1.9252   61.6320   76.7523 H           1 E12       0.2022
     65 H29         0.2793   61.0401   74.8712 H           1 E12       0.0814
     66 H30        -1.1953   60.1114   75.1732 H           1 E12       0.0814
     67 H31         5.7006   65.9018   69.2788 H           1 E12       0.0267
     68 H32         5.2444   64.2496   68.9178 H           1 E12       0.0267
     69 H33         3.9116   66.2639   70.7694 H           1 E12       0.0265
     70 H34         4.6001   64.6998   71.1728 H           1 E12       0.0265
     71 H35         1.9413   65.2053   69.7353 H           1 E12       0.0265
     72 H36         2.1929   64.6477   71.3939 H           1 E12       0.0265
     73 H37         3.3958   62.5753   70.3326 H           1 E12       0.0265
     74 H38         2.6956   63.1169   68.7999 H           1 E12       0.0265
     75 H39         1.3348   61.3603   69.7822 H           1 E12       0.0265
     76 H40         0.4010   62.8562   69.6997 H           1 E12       0.0265
     77 H41         0.4256   63.1756   72.0277 H           1 E12       0.0265
     78 H42         1.8670   62.1883   72.2809 H           1 E12       0.0265
     79 H43         0.5673   60.4643   72.9413 H           1 E12       0.0265
     80 H44        -0.0236   60.3138   71.2785 H           1 E12       0.0265
     81 H45        -1.9660   60.3802   72.5593 H           1 E12       0.0267
     82 H46        -1.8569   62.0098   71.8888 H           1 E12       0.0267
     83 H47        -2.6204   61.9149   74.2832 H           1 E12       0.0317
     84 H48        -1.2117   62.9544   74.0292 H           1 E12       0.0317
@<TRIPOS>BOND
     1     1     9   1
     2     1     3   2
     3     1     2  am
     4     2    15   1
     5    15    10   1
     6    15     4   2
     7     4    11   1
     8     4     5   1
     9     5     9   2
    10    11     7   1
    11    11    12   1
    12    12     6   1
    13     6    10   1
    14     7     8   1
    15     8    13   1
    16    13    28   1
    17    28    29   1
    18    29    30   1
    19    30    31   1
    20    31    32   1
    21    32    33   1
    22    33    34   1
    23    34    35   1
    24    35    36   1
    25    36    27   1
    26    27    26   1
    27    26    23   1
    28    23    24   1
    29    23    18   1
    30    18    19   1
    31    18    17   2
    32    17    22   1
    33    17    16   1
    34    16    14  am
    35    14    20   1
    36    14    21   2
    37    20    19   2
    38    22    25   1
    39    25    24   1
    40     2    37   1
    41     5    38   1
    42     6    39   1
    43     6    40   1
    44     7    41   1
    45     7    42   1
    46     8    43   1
    47     8    44   1
    48     9    45   1
    49    10    46   1
    50    10    47   1
    51    11    48   1
    52    12    49   1
    53    12    50   1
    54    13    51   1
    55    13    52   1
    56    16    53   1
    57    19    54   1
    58    20    55   1
    59    22    56   1
    60    22    57   1
    61    23    58   1
    62    24    59   1
    63    24    60   1
    64    25    61   1
    65    25    62   1
    66    26    63   1
    67    26    64   1
    68    27    65   1
    69    27    66   1
    70    28    67   1
    71    28    68   1
    72    29    69   1
    73    29    70   1
    74    30    71   1
    75    30    72   1
    76    31    73   1
    77    31    74   1
    78    32    75   1
    79    32    76   1
    80    33    77   1
    81    33    78   1
    82    34    79   1
    83    34    80   1
    84    35    81   1
    85    35    82   1
    86    36    83   1
    87    36    84   1
@<TRIPOS>SUBSTRUCTURE
     1  E12      1

