@<TRIPOS>MOLECULE
1h23_ligand_039
    84    87
SMALL
GAST_HUCK
****
This file was generated by PARSER (from files_GN.cpp)

@<TRIPOS>ATOM
      1 C1         -3.0320   66.0929   75.8164 C.2         1 E12       0.1811
      2 N2         -1.7528   66.1299   75.4495 N.am        1 E12      -0.2230
      3 O7         -3.7534   67.0487   75.5749 O.2         1 E12      -0.4310
      4 C4         -1.4055   63.8918   76.0920 C.2         1 E12       0.0225
      5 C5         -2.7050   63.9035   76.5769 C.2         1 E12      -0.0779
      6 C14         1.4224   64.1776   75.7467 C.3         1 E12      -0.0310
      7 N17        -1.4522   61.5798   75.3763 N.4         1 E12       0.2346
      8 C24        -0.8348   60.3974   74.7206 C.3         1 E12      -0.0329
      9 C6         -3.5111   64.9744   76.4359 C.2         1 E12      -0.0278
     10 C9          0.4684   65.2682   75.2044 C.3         1 E12       0.0189
     11 C10        -0.6274   62.6265   76.0662 C.3         1 E12      -0.0032
     12 C13         0.8018   62.7930   75.4440 C.3         1 E12      -0.0041
     13 C63        -1.2868   60.2307   73.2397 C.3         1 E12      -0.0126
     14 C29         2.4001   68.4235   60.8651 C.2         1 E12       0.1811
     15 C3         -0.9207   65.0728   75.6046 C.2         1 E12       0.0883
     16 N30         3.7153   68.2715   61.0011 N.am        1 E12      -0.2230
     17 C31         4.3402   68.3970   62.1908 C.2         1 E12       0.0883
     18 C32         3.6030   68.6245   63.3167 C.2         1 E12       0.0225
     19 C33         2.2473   68.8456   63.1595 C.2         1 E12      -0.0779
     20 C34         1.6445   68.7291   61.9603 C.2         1 E12      -0.0278
     21 O35         1.8957   68.2947   59.7620 O.2         1 E12      -0.4310
     22 C36         5.7926   68.2716   62.1744 C.3         1 E12       0.0189
     23 C37         4.2306   68.7374   64.6477 C.3         1 E12      -0.0032
     24 C38         5.7038   68.2265   64.7065 C.3         1 E12      -0.0041
     25 C39         6.4970   68.7152   63.4807 C.3         1 E12      -0.0310
     26 N40         3.4632   68.1397   65.7825 N.4         1 E12       0.2346
     27 C41         3.1425   66.6886   65.7598 C.3         1 E12      -0.0329
     28 C64        -0.5793   61.1553   72.1927 C.3         1 E12      -0.0483
     29 C65        -1.4181   62.3968   71.7606 C.3         1 E12      -0.0529
     30 C66        -0.7363   63.3469   70.7151 C.3         1 E12      -0.0531
     31 C67        -0.2671   64.7244   71.2911 C.3         1 E12      -0.0531
     32 C68        -0.5920   65.9506   70.3834 C.3         1 E12      -0.0531
     33 C69         0.5848   66.9699   70.2571 C.3         1 E12      -0.0531
     34 C70         1.8121   66.3997   69.5023 C.3         1 E12      -0.0529
     35 C71         1.9098   66.9065   68.0333 C.3         1 E12      -0.0483
     36 C72         2.9665   66.1375   67.1961 C.3         1 E12      -0.0126
     37 H1         -1.4108   66.9381   75.0344 H           1 E12       0.2526
     38 H2         -3.0677   63.1005   77.0389 H           1 E12       0.0600
     39 H3          2.4001   64.2657   75.2711 H           1 E12       0.0298
     40 H4          1.5540   64.3008   76.8309 H           1 E12       0.0298
     41 H5         -2.0295   62.0555   74.6844 H           1 E12       0.2022
     42 H6         -2.0977   61.2166   76.0801 H           1 E12       0.2022
     43 H7         -1.1633   59.5164   75.2757 H           1 E12       0.0814
     44 H8          0.2552   60.3981   74.7574 H           1 E12       0.0814
     45 H9         -4.4468   64.9511   76.7792 H           1 E12       0.0298
     46 H10         0.8245   66.2323   75.5675 H           1 E12       0.0511
     47 H11         0.5073   65.2916   74.1066 H           1 E12       0.0511
     48 H12        -0.4948   62.3182   77.1104 H           1 E12       0.0913
     49 H13         0.7580   62.6704   74.3578 H           1 E12       0.0333
     50 H14         1.4736   62.0267   75.8417 H           1 E12       0.0333
     51 H15        -2.3738   60.3705   73.1799 H           1 E12       0.0317
     52 H16        -1.0752   59.1890   72.9583 H           1 E12       0.0317
     53 H17         4.2554   68.0714   60.2168 H           1 E12       0.2526
     54 H18         1.6858   69.0982   63.9430 H           1 E12       0.0600
     55 H19         0.6666   68.8855   61.8682 H           1 E12       0.0298
     56 H20         6.1950   68.8885   61.3667 H           1 E12       0.0511
     57 H21         6.0502   67.2281   61.9624 H           1 E12       0.0511
     58 H22         4.2633   69.8103   64.8673 H           1 E12       0.0913
     59 H23         5.7400   67.1358   64.7243 H           1 E12       0.0333
     60 H24         6.1854   68.5879   65.6162 H           1 E12       0.0333
     61 H25         6.5707   69.8087   63.5108 H           1 E12       0.0298
     62 H26         7.5054   68.3009   63.5020 H           1 E12       0.0298
     63 H27         4.0032   68.3278   66.6316 H           1 E12       0.2022
     64 H28         2.5777   68.6473   65.8717 H           1 E12       0.2022
     65 H29         2.2210   66.5324   65.1909 H           1 E12       0.0814
     66 H30         3.9288   66.1107   65.2699 H           1 E12       0.0814
     67 H31        -0.3893   60.5559   71.2985 H           1 E12       0.0267
     68 H32         0.3934   61.4780   72.5821 H           1 E12       0.0267
     69 H33        -1.6802   62.9820   72.6452 H           1 E12       0.0265
     70 H34        -2.3603   62.0366   71.3236 H           1 E12       0.0265
     71 H35        -1.4513   63.5174   69.9030 H           1 E12       0.0265
     72 H36         0.1286   62.8487   70.2524 H           1 E12       0.0265
     73 H37         0.8024   64.6515   71.4894 H           1 E12       0.0265
     74 H38        -0.7532   64.9065   72.2575 H           1 E12       0.0265
     75 H39        -1.4557   66.4770   70.8102 H           1 E12       0.0265
     76 H40        -0.8941   65.6161   69.3897 H           1 E12       0.0265
     77 H41         0.8788   67.2901   71.2564 H           1 E12       0.0265
     78 H42         0.2239   67.8667   69.7380 H           1 E12       0.0265
     79 H43         1.7801   65.3057   69.5179 H           1 E12       0.0265
     80 H44         2.7167   66.7105   70.0334 H           1 E12       0.0265
     81 H45         2.1662   67.9724   68.0581 H           1 E12       0.0267
     82 H46         0.9393   66.8119   67.5396 H           1 E12       0.0267
     83 H47         2.6644   65.0855   67.1383 H           1 E12       0.0317
     84 H48         3.9348   66.1792   67.7084 H           1 E12       0.0317
@<TRIPOS>BOND
     1     1     9   1
     2     1     3   2
     3     1     2  am
     4     2    15   1
     5    15    10   1
     6    15     4   2
     7     4    11   1
     8     4     5   1
     9     5     9   2
    10    11     7   1
    11    11    12   1
    12    12     6   1
    13     6    10   1
    14     7     8   1
    15     8    13   1
    16    13    28   1
    17    28    29   1
    18    29    30   1
    19    30    31   1
    20    31    32   1
    21    32    33   1
    22    33    34   1
    23    34    35   1
    24    35    36   1
    25    36    27   1
    26    27    26   1
    27    26    23   1
    28    23    24   1
    29    23    18   1
    30    18    19   1
    31    18    17   2
    32    17    22   1
    33    17    16   1
    34    16    14  am
    35    14    20   1
    36    14    21   2
    37    20    19   2
    38    22    25   1
    39    25    24   1
    40     2    37   1
    41     5    38   1
    42     6    39   1
    43     6    40   1
    44     7    41   1
    45     7    42   1
    46     8    43   1
    47     8    44   1
    48     9    45   1
    49    10    46   1
    50    10    47   1
    51    11    48   1
    52    12    49   1
    53    12    50   1
    54    13    51   1
    55    13    52   1
    56    16    53   1
    57    19    54   1
    58    20    55   1
    59    22    56   1
    60    22    57   1
    61    23    58   1
    62    24    59   1
    63    24    60   1
    64    25    61   1
    65    25    62   1
    66    26    63   1
    67    26    64   1
    68    27    65   1
    69    27    66   1
    70    28    67   1
    71    28    68   1
    72    29    69   1
    73    29    70   1
    74    30    71   1
    75    30    72   1
    76    31    73   1
    77    31    74   1
    78    32    75   1
    79    32    76   1
    80    33    77   1
    81    33    78   1
    82    34    79   1
    83    34    80   1
    84    35    81   1
    85    35    82   1
    86    36    83   1
    87    36    84   1
@<TRIPOS>SUBSTRUCTURE
     1  E12      1

