@<TRIPOS>MOLECULE
1h23_ligand_065
    84    87
SMALL
GAST_HUCK
****
This file was generated by PARSER (from files_GN.cpp)

@<TRIPOS>ATOM
      1 C1         -1.4692   61.0654   72.3566 C.2         1 E12       0.1811
      2 N2         -2.2547   60.5603   73.3091 N.am        1 E12      -0.2230
      3 O7         -1.8188   62.0708   71.7561 O.2         1 E12      -0.4310
      4 C4         -0.7293   58.8534   73.7954 C.2         1 E12       0.0225
      5 C5          0.0422   59.3223   72.7372 C.2         1 E12      -0.0779
      6 C14        -2.6074   57.5675   75.5576 C.3         1 E12      -0.0310
      7 N17         1.1492   58.0701   75.1598 N.4         1 E12       0.2346
      8 C24         2.3282   57.4974   74.4530 C.3         1 E12      -0.0329
      9 C6         -0.3129   60.4178   72.0355 C.2         1 E12      -0.0278
     10 C9         -2.9056   58.9819   74.9965 C.3         1 E12       0.0189
     11 C10        -0.2176   57.7584   74.6472 C.3         1 E12      -0.0032
     12 C13        -1.1072   57.4419   75.8917 C.3         1 E12      -0.0041
     13 C63         3.5632   58.4185   74.6692 C.3         1 E12      -0.0126
     14 C29         1.5370   69.3606   62.0962 C.2         1 E12       0.1811
     15 C3         -1.9328   59.4556   74.0196 C.2         1 E12       0.0883
     16 N30         2.8077   69.2313   61.7180 N.am        1 E12      -0.2230
     17 C31         3.8099   69.0120   62.5977 C.2         1 E12       0.0883
     18 C32         3.5307   68.9498   63.9290 C.2         1 E12       0.0225
     19 C33         2.2015   69.0352   64.3142 C.2         1 E12      -0.0779
     20 C34         1.2192   69.2446   63.4154 C.2         1 E12      -0.0278
     21 O35         0.6912   69.6213   61.2542 O.2         1 E12      -0.4310
     22 C36         5.1546   68.9616   62.0379 C.3         1 E12       0.0189
     23 C37         4.5840   68.9107   64.9710 C.3         1 E12      -0.0032
     24 C38         6.0384   69.1273   64.4249 C.3         1 E12      -0.0041
     25 C39         6.2463   68.4816   63.0307 C.3         1 E12      -0.0310
     26 N40         4.4591   67.7454   65.9029 N.4         1 E12       0.2346
     27 C41         5.1558   66.4701   65.5792 C.3         1 E12      -0.0329
     28 C64         3.5958   59.6920   73.7551 C.3         1 E12      -0.0483
     29 C65         4.4881   59.5654   72.4689 C.3         1 E12      -0.0529
     30 C66         5.6038   60.6531   72.3565 C.3         1 E12      -0.0531
     31 C67         5.1290   62.1223   72.1335 C.3         1 E12      -0.0531
     32 C68         4.6613   62.4416   70.6793 C.3         1 E12      -0.0531
     33 C69         5.0915   63.8493   70.1525 C.3         1 E12      -0.0531
     34 C70         4.4389   64.1836   68.7771 C.3         1 E12      -0.0529
     35 C71         5.2296   65.2057   67.9001 C.3         1 E12      -0.0483
     36 C72         4.6514   65.2807   66.4504 C.3         1 E12      -0.0126
     37 H1         -3.0851   61.0171   73.5159 H           1 E12       0.2526
     38 H2          0.8667   58.8360   72.4594 H           1 E12       0.0600
     39 H3         -3.2086   57.3984   76.4535 H           1 E12       0.0298
     40 H4         -2.8763   56.8090   74.8158 H           1 E12       0.0298
     41 H5          1.2152   57.7560   76.1344 H           1 E12       0.2022
     42 H6          1.2401   59.0889   75.1800 H           1 E12       0.2022
     43 H7          2.1389   57.3693   73.3784 H           1 E12       0.0814
     44 H8          2.5382   56.5075   74.8855 H           1 E12       0.0814
     45 H9          0.2472   60.7285   71.2722 H           1 E12       0.0298
     46 H10        -3.8965   58.9626   74.5344 H           1 E12       0.0511
     47 H11        -2.9249   59.7058   75.8128 H           1 E12       0.0511
     48 H12        -0.1947   56.8490   74.0305 H           1 E12       0.0913
     49 H13        -0.8845   58.1407   76.7081 H           1 E12       0.0333
     50 H14        -0.8988   56.4291   76.2478 H           1 E12       0.0333
     51 H15         4.4713   57.8146   74.5241 H           1 E12       0.0317
     52 H16         3.5549   58.7395   75.7213 H           1 E12       0.0317
     53 H17         3.0263   69.3245   60.7800 H           1 E12       0.2526
     54 H18         1.9571   68.9574   65.2777 H           1 E12       0.0600
     55 H19         0.2776   69.3239   63.7197 H           1 E12       0.0298
     56 H20         5.4078   69.9693   61.6828 H           1 E12       0.0511
     57 H21         5.1565   68.2811   61.1781 H           1 E12       0.0511
     58 H22         4.3995   69.7789   65.6199 H           1 E12       0.0913
     59 H23         6.7747   68.7103   65.1215 H           1 E12       0.0333
     60 H24         6.2314   70.2078   64.3275 H           1 E12       0.0333
     61 H25         7.2330   68.7530   62.6411 H           1 E12       0.0298
     62 H26         6.1982   67.3873   63.1128 H           1 E12       0.0298
     63 H27         4.8110   68.0460   66.8197 H           1 E12       0.2022
     64 H28         3.4571   67.5337   66.0063 H           1 E12       0.2022
     65 H29         4.9795   66.2116   64.5228 H           1 E12       0.0814
     66 H30         6.2326   66.6105   65.7403 H           1 E12       0.0814
     67 H31         3.9576   60.5192   74.3816 H           1 E12       0.0267
     68 H32         2.5709   59.9516   73.4429 H           1 E12       0.0267
     69 H33         3.8443   59.6085   71.5771 H           1 E12       0.0265
     70 H34         4.9915   58.5872   72.4548 H           1 E12       0.0265
     71 H35         6.2735   60.3774   71.5310 H           1 E12       0.0265
     72 H36         6.2041   60.6285   73.2761 H           1 E12       0.0265
     73 H37         5.9699   62.7763   72.3935 H           1 E12       0.0265
     74 H38         4.3149   62.3446   72.8326 H           1 E12       0.0265
     75 H39         3.5678   62.3684   70.6397 H           1 E12       0.0265
     76 H40         5.0677   61.6937   69.9894 H           1 E12       0.0265
     77 H41         6.1821   63.8702   70.0405 H           1 E12       0.0265
     78 H42         4.8099   64.6172   70.8829 H           1 E12       0.0265
     79 H43         3.4287   64.5700   68.9557 H           1 E12       0.0265
     80 H44         4.3378   63.2541   68.2040 H           1 E12       0.0265
     81 H45         6.2815   64.8992   67.8471 H           1 E12       0.0267
     82 H46         5.1814   66.2032   68.3597 H           1 E12       0.0267
     83 H47         3.5555   65.3294   66.5057 H           1 E12       0.0317
     84 H48         4.9279   64.3568   65.9240 H           1 E12       0.0317
@<TRIPOS>BOND
     1     1     9   1
     2     1     3   2
     3     1     2  am
     4     2    15   1
     5    15    10   1
     6    15     4   2
     7     4    11   1
     8     4     5   1
     9     5     9   2
    10    11     7   1
    11    11    12   1
    12    12     6   1
    13     6    10   1
    14     7     8   1
    15     8    13   1
    16    13    28   1
    17    28    29   1
    18    29    30   1
    19    30    31   1
    20    31    32   1
    21    32    33   1
    22    33    34   1
    23    34    35   1
    24    35    36   1
    25    36    27   1
    26    27    26   1
    27    26    23   1
    28    23    24   1
    29    23    18   1
    30    18    19   1
    31    18    17   2
    32    17    22   1
    33    17    16   1
    34    16    14  am
    35    14    20   1
    36    14    21   2
    37    20    19   2
    38    22    25   1
    39    25    24   1
    40     2    37   1
    41     5    38   1
    42     6    39   1
    43     6    40   1
    44     7    41   1
    45     7    42   1
    46     8    43   1
    47     8    44   1
    48     9    45   1
    49    10    46   1
    50    10    47   1
    51    11    48   1
    52    12    49   1
    53    12    50   1
    54    13    51   1
    55    13    52   1
    56    16    53   1
    57    19    54   1
    58    20    55   1
    59    22    56   1
    60    22    57   1
    61    23    58   1
    62    24    59   1
    63    24    60   1
    64    25    61   1
    65    25    62   1
    66    26    63   1
    67    26    64   1
    68    27    65   1
    69    27    66   1
    70    28    67   1
    71    28    68   1
    72    29    69   1
    73    29    70   1
    74    30    71   1
    75    30    72   1
    76    31    73   1
    77    31    74   1
    78    32    75   1
    79    32    76   1
    80    33    77   1
    81    33    78   1
    82    34    79   1
    83    34    80   1
    84    35    81   1
    85    35    82   1
    86    36    83   1
    87    36    84   1
@<TRIPOS>SUBSTRUCTURE
     1  E12      1

