@<TRIPOS>MOLECULE
1h23_ligand_045
    84    87
SMALL
GAST_HUCK
****
This file was generated by PARSER (from files_GN.cpp)

@<TRIPOS>ATOM
      1 C1          2.3795   68.4724   60.8797 C.2         1 E12       0.1811
      2 N2          3.6777   68.2196   61.0332 N.am        1 E12      -0.2230
      3 O7          1.8750   68.3577   59.7744 O.2         1 E12      -0.4310
      4 C4          3.5983   68.7647   63.3115 C.2         1 E12       0.0225
      5 C5          2.2479   69.0138   63.1509 C.2         1 E12      -0.0779
      6 C14         6.4191   68.1287   63.6248 C.3         1 E12      -0.0310
      7 N17         3.9235   67.6154   65.3552 N.4         1 E12       0.2346
      8 C24         4.6065   67.3412   66.6466 C.3         1 E12      -0.0329
      9 C6          1.6410   68.8732   61.9539 C.2         1 E12      -0.0278
     10 C9          5.7349   68.0634   62.2354 C.3         1 E12       0.0189
     11 C10         4.2221   68.8841   64.6392 C.3         1 E12      -0.0032
     12 C13         5.7463   69.1975   64.5140 C.3         1 E12      -0.0041
     13 C63         4.1175   65.9639   67.1750 C.3         1 E12      -0.0126
     14 C29         1.6198   56.5406   73.1709 C.2         1 E12       0.1811
     15 C3          4.3011   68.3353   62.2242 C.2         1 E12       0.0883
     16 N30         2.7652   57.2145   73.2287 N.am        1 E12      -0.2230
     17 C31         2.8278   58.5592   73.1164 C.2         1 E12       0.0883
     18 C32         1.6746   59.2725   72.9882 C.2         1 E12       0.0225
     19 C33         0.4937   58.5588   72.8501 C.2         1 E12      -0.0779
     20 C34         0.4584   57.2157   72.9590 C.2         1 E12      -0.0278
     21 O35         1.6298   55.3250   73.2785 O.2         1 E12      -0.4310
     22 C36         4.1519   59.1663   73.1309 C.3         1 E12       0.0189
     23 C37         1.6545   60.7514   72.9185 C.3         1 E12      -0.0032
     24 C38         3.0484   61.4359   73.1533 C.3         1 E12      -0.0041
     25 C39         4.1968   60.5998   72.5578 C.3         1 E12      -0.0310
     26 N40         0.6713   61.2958   73.9071 N.4         1 E12       0.2346
     27 C41         0.2448   62.7146   73.8028 C.3         1 E12      -0.0329
     28 C64         4.1960   65.7809   68.7222 C.3         1 E12      -0.0483
     29 C65         3.2072   66.5815   69.6339 C.3         1 E12      -0.0529
     30 C66         1.7666   66.8362   69.0737 C.3         1 E12      -0.0531
     31 C67         0.6499   66.9802   70.1564 C.3         1 E12      -0.0531
     32 C68        -0.1793   65.6844   70.4411 C.3         1 E12      -0.0531
     33 C69         0.6731   64.3912   70.5278 C.3         1 E12      -0.0531
     34 C70        -0.0910   63.0536   70.3100 C.3         1 E12      -0.0529
     35 C71        -0.9787   62.4090   71.4339 C.3         1 E12      -0.0483
     36 C72        -0.9750   62.9797   72.8831 C.3         1 E12      -0.0126
     37 H1          4.2028   67.9456   60.2634 H           1 E12       0.2526
     38 H2          1.6990   69.3071   63.9291 H           1 E12       0.0600
     39 H3          6.3437   67.1583   64.1206 H           1 E12       0.0298
     40 H4          7.4799   68.3501   63.5033 H           1 E12       0.0298
     41 H5          4.1230   66.8265   64.7302 H           1 E12       0.2022
     42 H6          2.9216   67.6050   65.5604 H           1 E12       0.2022
     43 H7          4.3852   68.1410   67.3689 H           1 E12       0.0814
     44 H8          5.7002   67.2717   66.5001 H           1 E12       0.0814
     45 H9          0.6687   69.0600   61.8613 H           1 E12       0.0298
     46 H10         6.2188   68.7943   61.5844 H           1 E12       0.0511
     47 H11         5.9139   67.0715   61.8143 H           1 E12       0.0511
     48 H12         3.7668   69.7101   65.1989 H           1 E12       0.0913
     49 H13         6.2306   69.2285   65.4891 H           1 E12       0.0333
     50 H14         5.8748   70.1825   64.0529 H           1 E12       0.0333
     51 H15         4.7451   65.1771   66.7274 H           1 E12       0.0317
     52 H16         3.0862   65.7719   66.8597 H           1 E12       0.0317
     53 H17         3.5898   56.7189   73.3541 H           1 E12       0.2526
     54 H18        -0.3578   59.0364   72.6421 H           1 E12       0.0600
     55 H19        -0.4028   56.7315   72.8652 H           1 E12       0.0298
     56 H20         4.8406   58.5548   72.5423 H           1 E12       0.0511
     57 H21         4.5063   59.1725   74.1624 H           1 E12       0.0511
     58 H22         1.2966   61.0207   71.9138 H           1 E12       0.0913
     59 H23         3.2344   61.5665   74.2261 H           1 E12       0.0333
     60 H24         3.0697   62.4260   72.6870 H           1 E12       0.0333
     61 H25         4.0928   60.5709   71.4692 H           1 E12       0.0298
     62 H26         5.1570   61.0641   72.7968 H           1 E12       0.0298
     63 H27        -0.1848   60.7332   73.8770 H           1 E12       0.2022
     64 H28         1.0753   61.1775   74.8422 H           1 E12       0.2022
     65 H29        -0.0548   63.0251   74.8067 H           1 E12       0.0814
     66 H30         1.0664   63.3706   73.5295 H           1 E12       0.0814
     67 H31         5.2219   66.0337   69.0486 H           1 E12       0.0267
     68 H32         4.0551   64.7078   68.9321 H           1 E12       0.0267
     69 H33         3.6637   67.5576   69.8848 H           1 E12       0.0265
     70 H34         3.1408   66.0272   70.5885 H           1 E12       0.0265
     71 H35         1.4735   66.0439   68.3851 H           1 E12       0.0265
     72 H36         1.7994   67.7696   68.4984 H           1 E12       0.0265
     73 H37        -0.0652   67.7310   69.8074 H           1 E12       0.0265
     74 H38         1.0665   67.3549   71.1035 H           1 E12       0.0265
     75 H39        -0.9403   65.5683   69.6436 H           1 E12       0.0265
     76 H40        -0.7191   65.8222   71.3857 H           1 E12       0.0265
     77 H41         1.1969   64.3741   71.4751 H           1 E12       0.0265
     78 H42         1.4295   64.4397   69.7411 H           1 E12       0.0265
     79 H43         0.6585   62.3010   70.0226 H           1 E12       0.0265
     80 H44        -0.7292   63.1697   69.4156 H           1 E12       0.0265
     81 H45        -0.7046   61.3398   71.5061 H           1 E12       0.0267
     82 H46        -2.0246   62.4393   71.0872 H           1 E12       0.0267
     83 H47        -1.8469   62.5463   73.3855 H           1 E12       0.0317
     84 H48        -1.1506   64.0599   72.8280 H           1 E12       0.0317
@<TRIPOS>BOND
     1     1     9   1
     2     1     3   2
     3     1     2  am
     4     2    15   1
     5    15    10   1
     6    15     4   2
     7     4    11   1
     8     4     5   1
     9     5     9   2
    10    11     7   1
    11    11    12   1
    12    12     6   1
    13     6    10   1
    14     7     8   1
    15     8    13   1
    16    13    28   1
    17    28    29   1
    18    29    30   1
    19    30    31   1
    20    31    32   1
    21    32    33   1
    22    33    34   1
    23    34    35   1
    24    35    36   1
    25    36    27   1
    26    27    26   1
    27    26    23   1
    28    23    24   1
    29    23    18   1
    30    18    19   1
    31    18    17   2
    32    17    22   1
    33    17    16   1
    34    16    14  am
    35    14    20   1
    36    14    21   2
    37    20    19   2
    38    22    25   1
    39    25    24   1
    40     2    37   1
    41     5    38   1
    42     6    39   1
    43     6    40   1
    44     7    41   1
    45     7    42   1
    46     8    43   1
    47     8    44   1
    48     9    45   1
    49    10    46   1
    50    10    47   1
    51    11    48   1
    52    12    49   1
    53    12    50   1
    54    13    51   1
    55    13    52   1
    56    16    53   1
    57    19    54   1
    58    20    55   1
    59    22    56   1
    60    22    57   1
    61    23    58   1
    62    24    59   1
    63    24    60   1
    64    25    61   1
    65    25    62   1
    66    26    63   1
    67    26    64   1
    68    27    65   1
    69    27    66   1
    70    28    67   1
    71    28    68   1
    72    29    69   1
    73    29    70   1
    74    30    71   1
    75    30    72   1
    76    31    73   1
    77    31    74   1
    78    32    75   1
    79    32    76   1
    80    33    77   1
    81    33    78   1
    82    34    79   1
    83    34    80   1
    84    35    81   1
    85    35    82   1
    86    36    83   1
    87    36    84   1
@<TRIPOS>SUBSTRUCTURE
     1  E12      1

