@<TRIPOS>MOLECULE
1h23_ligand_070
    84    87
SMALL
GAST_HUCK
****
This file was generated by PARSER (from files_GN.cpp)

@<TRIPOS>ATOM
      1 C1          2.4715   68.2979   60.6902 C.2         1 E12       0.1811
      2 N2          3.7759   68.0878   60.8771 N.am        1 E12      -0.2230
      3 O7          1.9997   68.1348   59.5757 O.2         1 E12      -0.4310
      4 C4          3.6392   68.7394   63.1235 C.2         1 E12       0.0225
      5 C5          2.2850   68.9476   62.9226 C.2         1 E12      -0.0779
      6 C14         6.3982   68.0170   63.5669 C.3         1 E12      -0.0310
      7 N17         3.7915   68.0534   65.4478 N.4         1 E12       0.2346
      8 C24         3.3446   68.5919   66.7626 C.3         1 E12      -0.0329
      9 C6          1.7056   68.7306   61.7258 C.2         1 E12      -0.0278
     10 C9          5.8142   68.0470   62.1313 C.3         1 E12       0.0189
     11 C10         4.2256   69.0580   64.4267 C.3         1 E12      -0.0032
     12 C13         5.7851   69.1611   64.4112 C.3         1 E12      -0.0041
     13 C63         1.8144   68.8838   66.8063 C.3         1 E12      -0.0126
     14 C29         2.7903   56.8382   71.2904 C.2         1 E12       0.1811
     15 C3          4.3740   68.2790   62.0723 C.2         1 E12       0.0883
     16 N30         1.8811   57.5423   71.9647 N.am        1 E12      -0.2230
     17 C31         2.1953   58.6535   72.6612 C.2         1 E12       0.0883
     18 C32         3.4993   59.0488   72.7348 C.2         1 E12       0.0225
     19 C33         4.4373   58.3101   72.0330 C.2         1 E12      -0.0779
     20 C34         4.0895   57.2326   71.3064 C.2         1 E12      -0.0278
     21 O35         2.4449   55.8334   70.6866 O.2         1 E12      -0.4310
     22 C36         1.1040   59.3433   73.3416 C.3         1 E12       0.0189
     23 C37         3.9322   60.2475   73.4730 C.3         1 E12      -0.0032
     24 C38         2.8346   60.9016   74.3773 C.3         1 E12      -0.0041
     25 C39         1.4201   60.7996   73.7631 C.3         1 E12      -0.0310
     26 N40         4.6312   61.2483   72.6054 N.4         1 E12       0.2346
     27 C41         4.0019   61.6591   71.3265 C.3         1 E12      -0.0329
     28 C64         0.9737   67.8068   67.5607 C.3         1 E12      -0.0483
     29 C65         0.9801   67.9720   69.1170 C.3         1 E12      -0.0529
     30 C66         1.4186   66.7395   69.9570 C.3         1 E12      -0.0531
     31 C67         2.9414   66.4095   69.9401 C.3         1 E12      -0.0531
     32 C68         3.3207   65.3005   68.9168 C.3         1 E12      -0.0531
     33 C69         4.8501   65.1608   68.6540 C.3         1 E12      -0.0531
     34 C70         5.7893   64.8697   69.8642 C.3         1 E12      -0.0529
     35 C71         5.2894   63.8734   70.9457 C.3         1 E12      -0.0483
     36 C72         4.9972   62.4345   70.4313 C.3         1 E12      -0.0126
     37 H1          4.3215   67.7996   60.1295 H           1 E12       0.2526
     38 H2          1.7191   69.3045   63.6564 H           1 E12       0.0600
     39 H3          6.1681   67.0559   64.0390 H           1 E12       0.0298
     40 H4          7.4856   68.1269   63.5246 H           1 E12       0.0298
     41 H5          4.5759   67.4182   65.6193 H           1 E12       0.2022
     42 H6          3.0271   67.4914   65.0651 H           1 E12       0.2022
     43 H7          3.9053   69.4933   67.0207 H           1 E12       0.0814
     44 H8          3.6104   67.8483   67.5113 H           1 E12       0.0814
     45 H9          0.7329   68.9081   61.5974 H           1 E12       0.0298
     46 H10         6.3101   68.8449   61.5658 H           1 E12       0.0511
     47 H11         6.0509   67.0920   61.6532 H           1 E12       0.0511
     48 H12         3.8645   70.0467   64.7100 H           1 E12       0.0913
     49 H13         6.1877   69.1122   65.4250 H           1 E12       0.0333
     50 H14         6.0871   70.1226   63.9774 H           1 E12       0.0333
     51 H15         1.4373   68.9507   65.7875 H           1 E12       0.0317
     52 H16         1.6544   69.8626   67.2630 H           1 E12       0.0317
     53 H17         0.9596   57.2434   71.9533 H           1 E12       0.2526
     54 H18         5.3909   58.5860   72.0394 H           1 E12       0.0600
     55 H19         4.7766   56.7294   70.7929 H           1 E12       0.0298
     56 H20         0.8364   58.7630   74.2286 H           1 E12       0.0511
     57 H21         0.2267   59.3695   72.6878 H           1 E12       0.0511
     58 H22         4.7099   59.9169   74.1700 H           1 E12       0.0913
     59 H23         3.0744   61.9467   74.5810 H           1 E12       0.0333
     60 H24         2.8167   60.3798   75.3375 H           1 E12       0.0333
     61 H25         0.6782   61.1402   74.4911 H           1 E12       0.0298
     62 H26         1.3444   61.4532   72.8938 H           1 E12       0.0298
     63 H27         4.7922   62.0937   73.1605 H           1 E12       0.2022
     64 H28         5.5522   60.8581   72.3766 H           1 E12       0.2022
     65 H29         3.6617   60.7797   70.7714 H           1 E12       0.0814
     66 H30         3.1347   62.2869   71.5293 H           1 E12       0.0814
     67 H31         1.3077   66.8077   67.2685 H           1 E12       0.0267
     68 H32        -0.0658   67.9161   67.2204 H           1 E12       0.0267
     69 H33        -0.0347   68.2165   69.4273 H           1 E12       0.0265
     70 H34         1.5970   68.8201   69.4282 H           1 E12       0.0265
     71 H35         0.8267   65.8677   69.6651 H           1 E12       0.0265
     72 H36         1.1497   66.9552   70.9945 H           1 E12       0.0265
     73 H37         3.2253   66.0752   70.9349 H           1 E12       0.0265
     74 H38         3.5221   67.3150   69.7393 H           1 E12       0.0265
     75 H39         2.8426   65.5115   67.9571 H           1 E12       0.0265
     76 H40         2.9264   64.3403   69.2842 H           1 E12       0.0265
     77 H41         5.2021   66.0858   68.1853 H           1 E12       0.0265
     78 H42         4.9961   64.3728   67.9111 H           1 E12       0.0265
     79 H43         5.9950   65.8209   70.3690 H           1 E12       0.0265
     80 H44         6.7473   64.5021   69.4720 H           1 E12       0.0265
     81 H45         4.3896   64.2893   71.4031 H           1 E12       0.0267
     82 H46         6.0509   63.8069   71.7345 H           1 E12       0.0267
     83 H47         5.9342   61.8732   70.3638 H           1 E12       0.0317
     84 H48         4.5569   62.4699   69.4320 H           1 E12       0.0317
@<TRIPOS>BOND
     1     1     9   1
     2     1     3   2
     3     1     2  am
     4     2    15   1
     5    15    10   1
     6    15     4   2
     7     4    11   1
     8     4     5   1
     9     5     9   2
    10    11     7   1
    11    11    12   1
    12    12     6   1
    13     6    10   1
    14     7     8   1
    15     8    13   1
    16    13    28   1
    17    28    29   1
    18    29    30   1
    19    30    31   1
    20    31    32   1
    21    32    33   1
    22    33    34   1
    23    34    35   1
    24    35    36   1
    25    36    27   1
    26    27    26   1
    27    26    23   1
    28    23    24   1
    29    23    18   1
    30    18    19   1
    31    18    17   2
    32    17    22   1
    33    17    16   1
    34    16    14  am
    35    14    20   1
    36    14    21   2
    37    20    19   2
    38    22    25   1
    39    25    24   1
    40     2    37   1
    41     5    38   1
    42     6    39   1
    43     6    40   1
    44     7    41   1
    45     7    42   1
    46     8    43   1
    47     8    44   1
    48     9    45   1
    49    10    46   1
    50    10    47   1
    51    11    48   1
    52    12    49   1
    53    12    50   1
    54    13    51   1
    55    13    52   1
    56    16    53   1
    57    19    54   1
    58    20    55   1
    59    22    56   1
    60    22    57   1
    61    23    58   1
    62    24    59   1
    63    24    60   1
    64    25    61   1
    65    25    62   1
    66    26    63   1
    67    26    64   1
    68    27    65   1
    69    27    66   1
    70    28    67   1
    71    28    68   1
    72    29    69   1
    73    29    70   1
    74    30    71   1
    75    30    72   1
    76    31    73   1
    77    31    74   1
    78    32    75   1
    79    32    76   1
    80    33    77   1
    81    33    78   1
    82    34    79   1
    83    34    80   1
    84    35    81   1
    85    35    82   1
    86    36    83   1
    87    36    84   1
@<TRIPOS>SUBSTRUCTURE
     1  E12      1

