@<TRIPOS>MOLECULE
1h23_ligand_062
    84    87
SMALL
GAST_HUCK
****
This file was generated by PARSER (from files_GN.cpp)

@<TRIPOS>ATOM
      1 C1         -1.9773   66.9673   80.1644 C.2         1 E12       0.1811
      2 N2         -1.8828   65.6421   80.2323 N.am        1 E12      -0.2230
      3 O7         -1.9805   67.6233   81.1944 O.2         1 E12      -0.4310
      4 C4         -1.9969   65.4177   77.8975 C.2         1 E12       0.0225
      5 C5         -2.0918   66.7980   77.8358 C.2         1 E12      -0.0779
      6 C14        -1.7431   62.5216   78.1238 C.3         1 E12      -0.0310
      7 N17        -1.1721   64.9089   75.5987 N.4         1 E12       0.2346
      8 C24         0.2220   64.3966   75.6179 C.3         1 E12      -0.0329
      9 C6         -2.0873   67.5644   78.9444 C.2         1 E12      -0.0278
     10 C9         -1.9171   63.4134   79.3776 C.3         1 E12       0.0189
     11 C10        -2.1801   64.6308   76.6653 C.3         1 E12      -0.0032
     12 C13        -2.4884   63.1172   76.9041 C.3         1 E12      -0.0041
     13 C63         0.6184   63.8776   74.2076 C.3         1 E12      -0.0126
     14 C29         2.5648   68.4095   60.7226 C.2         1 E12       0.1811
     15 C3         -1.8926   64.8495   79.1346 C.2         1 E12       0.0883
     16 N30         3.8643   68.1939   60.9173 N.am        1 E12      -0.2230
     17 C31         4.4442   68.3328   62.1315 C.2         1 E12       0.0883
     18 C32         3.6986   68.7629   63.1883 C.2         1 E12       0.0225
     19 C33         2.3472   68.9787   62.9764 C.2         1 E12      -0.0779
     20 C34         1.7821   68.8029   61.7661 C.2         1 E12      -0.0278
     21 O35         2.1008   68.2638   59.6036 O.2         1 E12      -0.4310
     22 C36         5.8724   68.0423   62.2038 C.3         1 E12       0.0189
     23 C37         4.2703   69.0088   64.5257 C.3         1 E12      -0.0032
     24 C38         5.8308   69.0381   64.5266 C.3         1 E12      -0.0041
     25 C39         6.4131   67.9104   63.6488 C.3         1 E12      -0.0310
     26 N40         3.6971   68.0129   65.4775 N.4         1 E12       0.2346
     27 C41         3.9166   68.2544   66.9223 C.3         1 E12      -0.0329
     28 C64         0.0345   62.4802   73.8516 C.3         1 E12      -0.0483
     29 C65         0.1269   62.0593   72.3536 C.3         1 E12      -0.0529
     30 C66        -0.8390   62.8116   71.3823 C.3         1 E12      -0.0531
     31 C67        -0.1697   63.6470   70.2563 C.3         1 E12      -0.0531
     32 C68         0.6713   64.8367   70.7882 C.3         1 E12      -0.0531
     33 C69         1.3961   65.6463   69.6874 C.3         1 E12      -0.0531
     34 C70         2.2849   66.7820   70.2735 C.3         1 E12      -0.0529
     35 C71         3.2589   67.5039   69.2926 C.3         1 E12      -0.0483
     36 C72         2.8973   67.4702   67.7821 C.3         1 E12      -0.0126
     37 H1         -1.8334   65.2277   81.1098 H           1 E12       0.2526
     38 H2         -2.2140   67.2476   76.9552 H           1 E12       0.0600
     39 H3         -0.6767   62.4222   77.8910 H           1 E12       0.0298
     40 H4         -2.1365   61.5180   78.3321 H           1 E12       0.0298
     41 H5         -1.0912   65.9275   75.5243 H           1 E12       0.2022
     42 H6         -1.6049   64.6120   74.7219 H           1 E12       0.2022
     43 H7          0.3780   63.6153   76.3590 H           1 E12       0.0814
     44 H8          0.8758   65.2415   75.8629 H           1 E12       0.0814
     45 H9         -2.1912   68.5527   78.8722 H           1 E12       0.0298
     46 H10        -2.8782   63.1762   79.8496 H           1 E12       0.0511
     47 H11        -1.1260   63.1531   80.0903 H           1 E12       0.0511
     48 H12        -3.1043   65.0105   76.2133 H           1 E12       0.0913
     49 H13        -2.2553   62.5309   76.0151 H           1 E12       0.0333
     50 H14        -3.5648   62.9970   77.0866 H           1 E12       0.0333
     51 H15         1.7154   63.8250   74.1292 H           1 E12       0.0317
     52 H16         0.2618   64.6163   73.4781 H           1 E12       0.0317
     53 H17         4.4237   67.9287   60.1677 H           1 E12       0.2526
     54 H18         1.7659   69.2690   63.7303 H           1 E12       0.0600
     55 H19         0.8081   68.9657   61.6375 H           1 E12       0.0298
     56 H20         6.4101   68.8459   61.6896 H           1 E12       0.0511
     57 H21         6.0863   67.1071   61.6778 H           1 E12       0.0511
     58 H22         3.9506   70.0065   64.8356 H           1 E12       0.0913
     59 H23         6.2276   68.9426   65.5350 H           1 E12       0.0333
     60 H24         6.1795   69.9991   64.1320 H           1 E12       0.0333
     61 H25         7.5043   67.9710   63.6372 H           1 E12       0.0298
     62 H26         6.1265   66.9388   64.0626 H           1 E12       0.0298
     63 H27         2.6833   67.9974   65.3419 H           1 E12       0.2022
     64 H28         4.0604   67.0869   65.2449 H           1 E12       0.2022
     65 H29         4.9274   67.9414   67.1891 H           1 E12       0.0814
     66 H30         3.8037   69.3214   67.1488 H           1 E12       0.0814
     67 H31        -1.0171   62.4367   74.1454 H           1 E12       0.0267
     68 H32         0.5661   61.7373   74.4558 H           1 E12       0.0267
     69 H33        -0.1149   60.9943   72.3031 H           1 E12       0.0265
     70 H34         1.1620   62.1469   72.0255 H           1 E12       0.0265
     71 H35        -1.5029   63.4654   71.9479 H           1 E12       0.0265
     72 H36        -1.4799   62.0750   70.8880 H           1 E12       0.0265
     73 H37        -0.9590   64.0452   69.6143 H           1 E12       0.0265
     74 H38         0.4586   62.9929   69.6467 H           1 E12       0.0265
     75 H39         1.4396   64.4560   71.4605 H           1 E12       0.0265
     76 H40         0.0186   65.5145   71.3467 H           1 E12       0.0265
     77 H41         0.6518   66.0945   69.0239 H           1 E12       0.0265
     78 H42         2.0191   64.9598   69.1091 H           1 E12       0.0265
     79 H43         2.8931   66.3649   71.0844 H           1 E12       0.0265
     80 H44         1.6213   67.5283   70.7270 H           1 E12       0.0265
     81 H45         4.2476   67.0533   69.4069 H           1 E12       0.0267
     82 H46         3.3419   68.5490   69.6108 H           1 E12       0.0267
     83 H47         1.9018   67.8986   67.6271 H           1 E12       0.0317
     84 H48         2.8801   66.4338   67.4445 H           1 E12       0.0317
@<TRIPOS>BOND
     1     1     9   1
     2     1     3   2
     3     1     2  am
     4     2    15   1
     5    15    10   1
     6    15     4   2
     7     4    11   1
     8     4     5   1
     9     5     9   2
    10    11     7   1
    11    11    12   1
    12    12     6   1
    13     6    10   1
    14     7     8   1
    15     8    13   1
    16    13    28   1
    17    28    29   1
    18    29    30   1
    19    30    31   1
    20    31    32   1
    21    32    33   1
    22    33    34   1
    23    34    35   1
    24    35    36   1
    25    36    27   1
    26    27    26   1
    27    26    23   1
    28    23    24   1
    29    23    18   1
    30    18    19   1
    31    18    17   2
    32    17    22   1
    33    17    16   1
    34    16    14  am
    35    14    20   1
    36    14    21   2
    37    20    19   2
    38    22    25   1
    39    25    24   1
    40     2    37   1
    41     5    38   1
    42     6    39   1
    43     6    40   1
    44     7    41   1
    45     7    42   1
    46     8    43   1
    47     8    44   1
    48     9    45   1
    49    10    46   1
    50    10    47   1
    51    11    48   1
    52    12    49   1
    53    12    50   1
    54    13    51   1
    55    13    52   1
    56    16    53   1
    57    19    54   1
    58    20    55   1
    59    22    56   1
    60    22    57   1
    61    23    58   1
    62    24    59   1
    63    24    60   1
    64    25    61   1
    65    25    62   1
    66    26    63   1
    67    26    64   1
    68    27    65   1
    69    27    66   1
    70    28    67   1
    71    28    68   1
    72    29    69   1
    73    29    70   1
    74    30    71   1
    75    30    72   1
    76    31    73   1
    77    31    74   1
    78    32    75   1
    79    32    76   1
    80    33    77   1
    81    33    78   1
    82    34    79   1
    83    34    80   1
    84    35    81   1
    85    35    82   1
    86    36    83   1
    87    36    84   1
@<TRIPOS>SUBSTRUCTURE
     1  E12      1

