@<TRIPOS>MOLECULE
1h23_ligand_075
    84    87
SMALL
GAST_HUCK
****
This file was generated by PARSER (from files_GN.cpp)

@<TRIPOS>ATOM
      1 C1          2.3617   55.2620   74.1851 C.2         1 E12       0.1811
      2 N2          2.8446   55.4295   72.9568 N.am        1 E12      -0.2230
      3 O7          2.4009   54.1505   74.6901 O.2         1 E12      -0.4310
      4 C4          2.4730   57.7395   73.0376 C.2         1 E12       0.0225
      5 C5          1.8612   57.5402   74.2660 C.2         1 E12      -0.0779
      6 C14         3.0221   57.9530   70.2270 C.3         1 E12      -0.0310
      7 N17         3.3443   59.9582   73.4969 N.4         1 E12       0.2346
      8 C24         3.6120   61.3892   73.1756 C.3         1 E12      -0.0329
      9 C6          1.8169   56.3227   74.8433 C.2         1 E12      -0.0278
     10 C9          3.4325   56.6770   71.0009 C.3         1 E12       0.0189
     11 C10         2.6123   59.1129   72.5009 C.3         1 E12      -0.0032
     12 C13         3.3010   59.1932   71.0997 C.3         1 E12      -0.0041
     13 C63         4.9922   61.6345   72.4811 C.3         1 E12      -0.0126
     14 C29         2.5114   68.3680   60.7054 C.2         1 E12       0.1811
     15 C3          2.8895   56.6360   72.3512 C.2         1 E12       0.0883
     16 N30         3.8176   68.1726   60.8724 N.am        1 E12      -0.2230
     17 C31         4.4384   68.3920   62.0476 C.2         1 E12       0.0883
     18 C32         3.7244   68.8934   63.0929 C.2         1 E12       0.0225
     19 C33         2.3733   69.1267   62.9055 C.2         1 E12      -0.0779
     20 C34         1.7645   68.8471   61.7380 C.2         1 E12      -0.0278
     21 O35         2.0120   68.1645   59.6119 O.2         1 E12      -0.4310
     22 C36         5.8687   68.1219   62.0996 C.3         1 E12       0.0189
     23 C37         4.3333   69.2055   64.3951 C.3         1 E12      -0.0032
     24 C38         5.8925   69.1020   64.4457 C.3         1 E12      -0.0041
     25 C39         6.4407   67.9848   63.5290 C.3         1 E12      -0.0310
     26 N40         3.6435   68.5353   65.5373 N.4         1 E12       0.2346
     27 C41         3.7448   67.0787   65.7589 C.3         1 E12      -0.0329
     28 C64         4.9576   62.2440   71.0540 C.3         1 E12      -0.0483
     29 C65         4.1067   63.5447   70.8631 C.3         1 E12      -0.0529
     30 C66         4.9274   64.8453   70.6333 C.3         1 E12      -0.0531
     31 C67         5.7911   64.9061   69.3385 C.3         1 E12      -0.0531
     32 C68         5.0523   65.2264   68.0087 C.3         1 E12      -0.0531
     33 C69         3.9980   64.1944   67.4992 C.3         1 E12      -0.0531
     34 C70         3.9774   63.9380   65.9492 C.3         1 E12      -0.0529
     35 C71         2.8882   64.6890   65.1160 C.3         1 E12      -0.0483
     36 C72         3.1985   66.1389   64.6516 C.3         1 E12      -0.0126
     37 H1          3.1911   54.6619   72.4827 H           1 E12       0.2526
     38 H2          1.4333   58.3017   74.7415 H           1 E12       0.0600
     39 H3          3.5821   58.0327   69.2937 H           1 E12       0.0298
     40 H4          1.9586   57.8997   69.9851 H           1 E12       0.0298
     41 H5          4.2355   59.4995   73.7114 H           1 E12       0.2022
     42 H6          2.7929   59.9569   74.3584 H           1 E12       0.2022
     43 H7          3.6163   61.9159   74.1378 H           1 E12       0.0814
     44 H8          2.7949   61.8257   72.5913 H           1 E12       0.0814
     45 H9          1.3845   56.2042   75.7304 H           1 E12       0.0298
     46 H10         3.0831   55.8117   70.4314 H           1 E12       0.0511
     47 H11         4.5234   56.6241   71.0561 H           1 E12       0.0511
     48 H12         1.5940   59.5123   72.3989 H           1 E12       0.0913
     49 H13         4.3839   59.2802   71.2283 H           1 E12       0.0333
     50 H14         2.9452   60.0815   70.5662 H           1 E12       0.0333
     51 H15         5.5423   60.6917   72.4188 H           1 E12       0.0317
     52 H16         5.5928   62.3012   73.1044 H           1 E12       0.0317
     53 H17         4.3550   67.8742   60.1180 H           1 E12       0.2526
     54 H18         1.8206   69.5112   63.6397 H           1 E12       0.0600
     55 H19         0.7940   69.0217   61.6226 H           1 E12       0.0298
     56 H20         6.3853   68.9395   61.5828 H           1 E12       0.0511
     57 H21         6.0930   67.1947   61.5622 H           1 E12       0.0511
     58 H22         4.1279   70.2622   64.5782 H           1 E12       0.0913
     59 H23         6.2306   68.9253   65.4668 H           1 E12       0.0333
     60 H24         6.3275   70.0499   64.1165 H           1 E12       0.0333
     61 H25         7.5314   68.0452   63.4921 H           1 E12       0.0298
     62 H26         6.1773   67.0046   63.9326 H           1 E12       0.0298
     63 H27         4.0118   68.9790   66.3817 H           1 E12       0.2022
     64 H28         2.6532   68.7658   65.4867 H           1 E12       0.2022
     65 H29         4.7900   66.8418   65.9525 H           1 E12       0.0814
     66 H30         3.1804   66.8811   66.6779 H           1 E12       0.0814
     67 H31         4.5919   61.4824   70.3647 H           1 E12       0.0267
     68 H32         6.0003   62.4201   70.7870 H           1 E12       0.0267
     69 H33         3.4775   63.7028   71.7473 H           1 E12       0.0265
     70 H34         3.4282   63.4066   70.0154 H           1 E12       0.0265
     71 H35         5.5892   64.9751   71.4927 H           1 E12       0.0265
     72 H36         4.2389   65.6997   70.6269 H           1 E12       0.0265
     73 H37         6.3569   63.9849   69.2045 H           1 E12       0.0265
     74 H38         6.5252   65.7038   69.4921 H           1 E12       0.0265
     75 H39         5.8307   65.3401   67.2450 H           1 E12       0.0265
     76 H40         4.5711   66.1945   68.1472 H           1 E12       0.0265
     77 H41         3.0030   64.5130   67.8236 H           1 E12       0.0265
     78 H42         4.1885   63.2429   68.0048 H           1 E12       0.0265
     79 H43         3.7905   62.8652   65.8273 H           1 E12       0.0265
     80 H44         4.9621   64.1177   65.5093 H           1 E12       0.0265
     81 H45         1.9434   64.6794   65.6585 H           1 E12       0.0267
     82 H46         2.7240   64.1062   64.1967 H           1 E12       0.0267
     83 H47         2.2655   66.5581   64.2694 H           1 E12       0.0317
     84 H48         3.9002   66.0854   63.8202 H           1 E12       0.0317
@<TRIPOS>BOND
     1     1     9   1
     2     1     3   2
     3     1     2  am
     4     2    15   1
     5    15    10   1
     6    15     4   2
     7     4    11   1
     8     4     5   1
     9     5     9   2
    10    11     7   1
    11    11    12   1
    12    12     6   1
    13     6    10   1
    14     7     8   1
    15     8    13   1
    16    13    28   1
    17    28    29   1
    18    29    30   1
    19    30    31   1
    20    31    32   1
    21    32    33   1
    22    33    34   1
    23    34    35   1
    24    35    36   1
    25    36    27   1
    26    27    26   1
    27    26    23   1
    28    23    24   1
    29    23    18   1
    30    18    19   1
    31    18    17   2
    32    17    22   1
    33    17    16   1
    34    16    14  am
    35    14    20   1
    36    14    21   2
    37    20    19   2
    38    22    25   1
    39    25    24   1
    40     2    37   1
    41     5    38   1
    42     6    39   1
    43     6    40   1
    44     7    41   1
    45     7    42   1
    46     8    43   1
    47     8    44   1
    48     9    45   1
    49    10    46   1
    50    10    47   1
    51    11    48   1
    52    12    49   1
    53    12    50   1
    54    13    51   1
    55    13    52   1
    56    16    53   1
    57    19    54   1
    58    20    55   1
    59    22    56   1
    60    22    57   1
    61    23    58   1
    62    24    59   1
    63    24    60   1
    64    25    61   1
    65    25    62   1
    66    26    63   1
    67    26    64   1
    68    27    65   1
    69    27    66   1
    70    28    67   1
    71    28    68   1
    72    29    69   1
    73    29    70   1
    74    30    71   1
    75    30    72   1
    76    31    73   1
    77    31    74   1
    78    32    75   1
    79    32    76   1
    80    33    77   1
    81    33    78   1
    82    34    79   1
    83    34    80   1
    84    35    81   1
    85    35    82   1
    86    36    83   1
    87    36    84   1
@<TRIPOS>SUBSTRUCTURE
     1  E12      1

