@<TRIPOS>MOLECULE
1h23_ligand_040
    84    87
SMALL
GAST_HUCK
****
This file was generated by PARSER (from files_GN.cpp)

@<TRIPOS>ATOM
      1 C1          3.0008   58.6745   69.7410 C.2         1 E12       0.1811
      2 N2          2.4165   59.8657   69.8692 N.am        1 E12      -0.2230
      3 O7          3.8099   58.4969   68.8430 O.2         1 E12      -0.4310
      4 C4          1.2910   59.1951   71.8167 C.2         1 E12       0.0225
      5 C5          1.8527   57.9435   71.6385 C.2         1 E12      -0.0779
      6 C14         0.3699   61.9194   72.2770 C.3         1 E12      -0.0310
      7 N17         1.0100   59.1590   74.2829 N.4         1 E12       0.2346
      8 C24         2.1148   59.9851   74.8404 C.3         1 E12      -0.0329
      9 C6          2.7003   57.6825   70.6246 C.2         1 E12      -0.0278
     10 C9          1.0248   61.5120   70.9303 C.3         1 E12       0.0189
     11 C10         0.3824   59.4204   72.9511 C.3         1 E12      -0.0032
     12 C13        -0.4307   60.7507   72.8911 C.3         1 E12      -0.0041
     13 C63         3.5239   59.7552   74.2058 C.3         1 E12      -0.0126
     14 C29         2.5351   68.4388   60.8112 C.2         1 E12       0.1811
     15 C3          1.5752   60.1578   70.8943 C.2         1 E12       0.0883
     16 N30         3.8340   68.2016   60.9771 N.am        1 E12      -0.2230
     17 C31         4.4444   68.3038   62.1780 C.2         1 E12       0.0883
     18 C32         3.7193   68.6741   63.2728 C.2         1 E12       0.0225
     19 C33         2.3667   68.9142   63.0961 C.2         1 E12      -0.0779
     20 C34         1.7809   68.8102   61.8853 C.2         1 E12      -0.0278
     21 O35         2.0439   68.3341   59.6982 O.2         1 E12      -0.4310
     22 C36         5.8859   68.1075   62.1782 C.3         1 E12       0.0189
     23 C37         4.3377   68.9412   64.5876 C.3         1 E12      -0.0032
     24 C38         5.9014   68.9698   64.5703 C.3         1 E12      -0.0041
     25 C39         6.5018   67.9427   63.5851 C.3         1 E12      -0.0310
     26 N40         3.7731   68.1380   65.7169 N.4         1 E12       0.2346
     27 C41         4.0681   66.6877   65.8301 C.3         1 E12      -0.0329
     28 C64         3.9926   60.9198   73.2859 C.3         1 E12      -0.0483
     29 C65         5.2879   60.6450   72.4763 C.3         1 E12      -0.0529
     30 C66         5.4245   61.5076   71.1853 C.3         1 E12      -0.0531
     31 C67         5.2485   63.0458   71.3547 C.3         1 E12      -0.0531
     32 C68         5.5268   63.8301   70.0404 C.3         1 E12      -0.0531
     33 C69         5.3395   65.3736   70.1324 C.3         1 E12      -0.0531
     34 C70         3.9322   65.9400   69.7404 C.3         1 E12      -0.0529
     35 C71         3.8904   66.8024   68.4345 C.3         1 E12      -0.0483
     36 C72         3.4987   66.0490   67.1286 C.3         1 E12      -0.0126
     37 H1          2.6219   60.5583   69.2162 H           1 E12       0.2526
     38 H2          1.6125   57.2001   72.2519 H           1 E12       0.0600
     39 H3          1.1401   62.2423   72.9783 H           1 E12       0.0298
     40 H4         -0.2920   62.7719   72.1109 H           1 E12       0.0298
     41 H5          1.3396   58.1931   74.2800 H           1 E12       0.2022
     42 H6          0.2501   59.2139   74.9666 H           1 E12       0.2022
     43 H7          2.1875   59.6958   75.8912 H           1 E12       0.0814
     44 H8          1.8401   61.0426   74.8272 H           1 E12       0.0814
     45 H9          3.0863   56.7721   70.5164 H           1 E12       0.0298
     46 H10         0.2881   61.6037   70.1259 H           1 E12       0.0511
     47 H11         1.8261   62.2280   70.7190 H           1 E12       0.0511
     48 H12        -0.3799   58.6371   72.8768 H           1 E12       0.0913
     49 H13        -0.7784   61.0343   73.8869 H           1 E12       0.0333
     50 H14        -1.3169   60.5920   72.2700 H           1 E12       0.0333
     51 H15         3.5249   58.8125   73.6506 H           1 E12       0.0317
     52 H16         4.2655   59.6423   75.0078 H           1 E12       0.0317
     53 H17         4.3733   67.9631   60.2050 H           1 E12       0.2526
     54 H18         1.8084   69.2079   63.8664 H           1 E12       0.0600
     55 H19         0.8149   69.0208   61.7766 H           1 E12       0.0298
     56 H20         6.3480   68.9664   61.6856 H           1 E12       0.0511
     57 H21         6.1349   67.2141   61.5996 H           1 E12       0.0511
     58 H22         4.0513   69.9664   64.8464 H           1 E12       0.0913
     59 H23         6.2958   68.7878   65.5709 H           1 E12       0.0333
     60 H24         6.2410   69.9662   64.2638 H           1 E12       0.0333
     61 H25         7.5852   68.0727   63.5297 H           1 E12       0.0298
     62 H26         6.3064   66.9301   63.9353 H           1 E12       0.0298
     63 H27         4.1108   68.5800   66.5751 H           1 E12       0.2022
     64 H28         2.7545   68.2486   65.7004 H           1 E12       0.2022
     65 H29         3.6525   66.1674   64.9640 H           1 E12       0.0814
     66 H30         5.1456   66.5310   65.8434 H           1 E12       0.0814
     67 H31         4.1534   61.8032   73.9122 H           1 E12       0.0267
     68 H32         3.1942   61.1579   72.5900 H           1 E12       0.0267
     69 H33         5.3009   59.5971   72.1688 H           1 E12       0.0265
     70 H34         6.1559   60.8044   73.1253 H           1 E12       0.0265
     71 H35         4.6865   61.1589   70.4552 H           1 E12       0.0265
     72 H36         6.4125   61.3109   70.7657 H           1 E12       0.0265
     73 H37         5.9330   63.3915   72.1355 H           1 E12       0.0265
     74 H38         4.2251   63.2586   71.6779 H           1 E12       0.0265
     75 H39         4.9045   63.4349   69.2341 H           1 E12       0.0265
     76 H40         6.5682   63.6485   69.7693 H           1 E12       0.0265
     77 H41         6.1035   65.8409   69.5040 H           1 E12       0.0265
     78 H42         5.5680   65.6855   71.1555 H           1 E12       0.0265
     79 H43         3.6067   66.5873   70.5646 H           1 E12       0.0265
     80 H44         3.1924   65.1386   69.6798 H           1 E12       0.0265
     81 H45         4.8565   67.2993   68.3015 H           1 E12       0.0267
     82 H46         3.1554   67.6030   68.5761 H           1 E12       0.0267
     83 H47         2.4084   65.9986   67.0563 H           1 E12       0.0317
     84 H48         3.8682   65.0247   67.1795 H           1 E12       0.0317
@<TRIPOS>BOND
     1     1     9   1
     2     1     3   2
     3     1     2  am
     4     2    15   1
     5    15    10   1
     6    15     4   2
     7     4    11   1
     8     4     5   1
     9     5     9   2
    10    11     7   1
    11    11    12   1
    12    12     6   1
    13     6    10   1
    14     7     8   1
    15     8    13   1
    16    13    28   1
    17    28    29   1
    18    29    30   1
    19    30    31   1
    20    31    32   1
    21    32    33   1
    22    33    34   1
    23    34    35   1
    24    35    36   1
    25    36    27   1
    26    27    26   1
    27    26    23   1
    28    23    24   1
    29    23    18   1
    30    18    19   1
    31    18    17   2
    32    17    22   1
    33    17    16   1
    34    16    14  am
    35    14    20   1
    36    14    21   2
    37    20    19   2
    38    22    25   1
    39    25    24   1
    40     2    37   1
    41     5    38   1
    42     6    39   1
    43     6    40   1
    44     7    41   1
    45     7    42   1
    46     8    43   1
    47     8    44   1
    48     9    45   1
    49    10    46   1
    50    10    47   1
    51    11    48   1
    52    12    49   1
    53    12    50   1
    54    13    51   1
    55    13    52   1
    56    16    53   1
    57    19    54   1
    58    20    55   1
    59    22    56   1
    60    22    57   1
    61    23    58   1
    62    24    59   1
    63    24    60   1
    64    25    61   1
    65    25    62   1
    66    26    63   1
    67    26    64   1
    68    27    65   1
    69    27    66   1
    70    28    67   1
    71    28    68   1
    72    29    69   1
    73    29    70   1
    74    30    71   1
    75    30    72   1
    76    31    73   1
    77    31    74   1
    78    32    75   1
    79    32    76   1
    80    33    77   1
    81    33    78   1
    82    34    79   1
    83    34    80   1
    84    35    81   1
    85    35    82   1
    86    36    83   1
    87    36    84   1
@<TRIPOS>SUBSTRUCTURE
     1  E12      1

