@<TRIPOS>MOLECULE
1h23_ligand_027
    84    87
SMALL
GAST_HUCK
****
This file was generated by PARSER (from files_GN.cpp)

@<TRIPOS>ATOM
      1 C1          4.3808   63.9551   63.6416 C.2         1 E12       0.1811
      2 N2          5.1973   64.8492   63.0847 N.am        1 E12      -0.2230
      3 O7          4.6946   62.7726   63.6433 O.2         1 E12      -0.4310
      4 C4          3.7590   66.6244   63.6186 C.2         1 E12       0.0225
      5 C5          2.9019   65.6831   64.1716 C.2         1 E12      -0.0779
      6 C14         5.1563   68.3092   61.7563 C.3         1 E12      -0.0310
      7 N17         3.0461   68.5639   64.9629 N.4         1 E12       0.2346
      8 C24         4.1239   68.6778   65.9845 C.3         1 E12      -0.0329
      9 C6          3.2034   64.3691   64.1850 C.2         1 E12      -0.0278
     10 C9          5.8383   67.0476   62.3372 C.3         1 E12       0.0189
     11 C10         3.3752   68.0512   63.6036 C.3         1 E12      -0.0032
     12 C13         4.3610   69.0247   62.8690 C.3         1 E12      -0.0041
     13 C63         3.8324   67.8679   67.2744 C.3         1 E12      -0.0126
     14 C29         4.0273   57.5864   70.9332 C.2         1 E12       0.1811
     15 C3          4.9022   66.1713   63.0313 C.2         1 E12       0.0883
     16 N30         4.0359   57.8163   72.2466 N.am        1 E12      -0.2230
     17 C31         3.5706   58.9660   72.7888 C.2         1 E12       0.0883
     18 C32         3.0924   59.9400   71.9762 C.2         1 E12       0.0225
     19 C33         3.1027   59.7108   70.6082 C.2         1 E12      -0.0779
     20 C34         3.5589   58.5478   70.0925 C.2         1 E12      -0.0278
     21 O35         4.4629   56.5222   70.5133 O.2         1 E12      -0.4310
     22 C36         3.6964   59.0974   74.2446 C.3         1 E12       0.0189
     23 C37         2.5248   61.1973   72.5091 C.3         1 E12      -0.0032
     24 C38         3.1500   61.5621   73.8923 C.3         1 E12      -0.0041
     25 C39         3.0392   60.3590   74.8561 C.3         1 E12      -0.0310
     26 N40         1.0466   61.0757   72.6472 N.4         1 E12       0.2346
     27 C41         0.1876   61.3726   71.4716 C.3         1 E12      -0.0329
     28 C64         2.8344   68.5086   68.2812 C.3         1 E12      -0.0483
     29 C65         1.4428   68.9461   67.7397 C.3         1 E12      -0.0529
     30 C66         0.4915   67.8187   67.2290 C.3         1 E12      -0.0531
     31 C67        -0.4887   67.2274   68.2765 C.3         1 E12      -0.0531
     32 C68         0.1762   66.6335   69.5472 C.3         1 E12      -0.0531
     33 C69        -0.8445   65.8731   70.4298 C.3         1 E12      -0.0531
     34 C70        -0.2659   65.3317   71.7687 C.3         1 E12      -0.0529
     35 C71         0.4492   63.9555   71.6706 C.3         1 E12      -0.0483
     36 C72        -0.5210   62.7445   71.5696 C.3         1 E12      -0.0126
     37 H1          6.0278   64.5407   62.6859 H           1 E12       0.2526
     38 H2          2.0288   65.9721   64.5492 H           1 E12       0.0600
     39 H3          5.9140   68.9870   61.3525 H           1 E12       0.0298
     40 H4          4.4791   68.0284   60.9452 H           1 E12       0.0298
     41 H5          2.3169   67.9606   65.3419 H           1 E12       0.2022
     42 H6          2.6319   69.4896   64.8454 H           1 E12       0.2022
     43 H7          4.2514   69.7308   66.2352 H           1 E12       0.0814
     44 H8          5.0786   68.3218   65.5836 H           1 E12       0.0814
     45 H9          2.5622   63.7162   64.5729 H           1 E12       0.0298
     46 H10         6.3220   66.5140   61.5171 H           1 E12       0.0511
     47 H11         6.6131   67.3485   63.0432 H           1 E12       0.0511
     48 H12         2.4406   68.0937   63.0335 H           1 E12       0.0913
     49 H13         5.0792   69.4560   63.5732 H           1 E12       0.0333
     50 H14         3.7999   69.8545   62.4318 H           1 E12       0.0333
     51 H15         4.7831   67.7436   67.8077 H           1 E12       0.0317
     52 H16         3.5022   66.8634   67.0051 H           1 E12       0.0317
     53 H17         4.3965   57.1331   72.8330 H           1 E12       0.2526
     54 H18         2.8075   60.4200   69.9786 H           1 E12       0.0600
     55 H19         3.5696   58.4139   69.1078 H           1 E12       0.0298
     56 H20         4.7623   59.1112   74.4798 H           1 E12       0.0511
     57 H21         3.2631   58.2147   74.7198 H           1 E12       0.0511
     58 H22         2.7743   62.0319   71.8424 H           1 E12       0.0913
     59 H23         2.6465   62.4313   74.3188 H           1 E12       0.0333
     60 H24         4.2046   61.8216   73.7565 H           1 E12       0.0333
     61 H25         3.5206   60.6006   75.8067 H           1 E12       0.0298
     62 H26         1.9869   60.1560   75.0609 H           1 E12       0.0298
     63 H27         0.8465   60.1196   72.9490 H           1 E12       0.2022
     64 H28         0.7464   61.6894   73.4056 H           1 E12       0.2022
     65 H29         0.7335   61.3091   70.5343 H           1 E12       0.0814
     66 H30        -0.5848   60.5978   71.4471 H           1 E12       0.0814
     67 H31         3.3085   69.3952   68.7105 H           1 E12       0.0267
     68 H32         2.6910   67.8054   69.1038 H           1 E12       0.0267
     69 H33         1.6133   69.6526   66.9262 H           1 E12       0.0265
     70 H34         0.9311   69.5095   68.5250 H           1 E12       0.0265
     71 H35         1.0584   66.9961   66.7845 H           1 E12       0.0265
     72 H36        -0.1219   68.2393   66.4266 H           1 E12       0.0265
     73 H37        -1.0655   66.4412   67.7787 H           1 E12       0.0265
     74 H38        -1.1958   68.0072   68.5735 H           1 E12       0.0265
     75 H39         0.5996   67.4498   70.1363 H           1 E12       0.0265
     76 H40         0.9814   65.9603   69.2532 H           1 E12       0.0265
     77 H41        -1.2614   65.0493   69.8462 H           1 E12       0.0265
     78 H42        -1.6630   66.5565   70.6702 H           1 E12       0.0265
     79 H43        -1.0775   65.2500   72.4971 H           1 E12       0.0265
     80 H44         0.4305   66.0688   72.1736 H           1 E12       0.0265
     81 H45         1.0614   63.8338   72.5687 H           1 E12       0.0267
     82 H46         1.1254   63.9597   70.8142 H           1 E12       0.0267
     83 H47        -1.1505   62.8535   70.6842 H           1 E12       0.0317
     84 H48        -1.1784   62.7423   72.4479 H           1 E12       0.0317
@<TRIPOS>BOND
     1     1     9   1
     2     1     3   2
     3     1     2  am
     4     2    15   1
     5    15    10   1
     6    15     4   2
     7     4    11   1
     8     4     5   1
     9     5     9   2
    10    11     7   1
    11    11    12   1
    12    12     6   1
    13     6    10   1
    14     7     8   1
    15     8    13   1
    16    13    28   1
    17    28    29   1
    18    29    30   1
    19    30    31   1
    20    31    32   1
    21    32    33   1
    22    33    34   1
    23    34    35   1
    24    35    36   1
    25    36    27   1
    26    27    26   1
    27    26    23   1
    28    23    24   1
    29    23    18   1
    30    18    19   1
    31    18    17   2
    32    17    22   1
    33    17    16   1
    34    16    14  am
    35    14    20   1
    36    14    21   2
    37    20    19   2
    38    22    25   1
    39    25    24   1
    40     2    37   1
    41     5    38   1
    42     6    39   1
    43     6    40   1
    44     7    41   1
    45     7    42   1
    46     8    43   1
    47     8    44   1
    48     9    45   1
    49    10    46   1
    50    10    47   1
    51    11    48   1
    52    12    49   1
    53    12    50   1
    54    13    51   1
    55    13    52   1
    56    16    53   1
    57    19    54   1
    58    20    55   1
    59    22    56   1
    60    22    57   1
    61    23    58   1
    62    24    59   1
    63    24    60   1
    64    25    61   1
    65    25    62   1
    66    26    63   1
    67    26    64   1
    68    27    65   1
    69    27    66   1
    70    28    67   1
    71    28    68   1
    72    29    69   1
    73    29    70   1
    74    30    71   1
    75    30    72   1
    76    31    73   1
    77    31    74   1
    78    32    75   1
    79    32    76   1
    80    33    77   1
    81    33    78   1
    82    34    79   1
    83    34    80   1
    84    35    81   1
    85    35    82   1
    86    36    83   1
    87    36    84   1
@<TRIPOS>SUBSTRUCTURE
     1  E12      1

