@<TRIPOS>MOLECULE
1hfs_ligand_002
    99   103
SMALL
GAST_HUCK
****
This file was generated by PARSER (from files_GN.cpp)

@<TRIPOS>ATOM
      1 C1         31.5049   36.7970   23.9008 C.3         1 L04      -0.0384
      2 C2         33.0270   36.9004   23.5703 C.3         1 L04       0.0141
      3 C3         33.2318   37.0374   22.1084 C.2         1 L04       0.0380
      4 C4         38.6835   39.6800   20.7266 C.3         1 L04      -0.0625
      5 C5         38.5087   31.1656   30.1342 C.ar        1 L04      -0.0257
      6 C6         38.1777   30.9659   31.4934 C.ar        1 L04      -0.0571
      7 C7         35.3318   35.9850   24.5808 C.3         1 L04       0.0523
      8 C8         35.9602   34.8701   25.4889 C.3         1 L04      -0.0232
      9 C9         35.4109   34.8012   26.9429 C.3         1 L04      -0.0166
     10 C10        36.2047   33.8651   27.7870 C.ar        1 L04      -0.0424
     11 C11        35.8262   32.5071   27.9123 C.ar        1 L04      -0.0596
     12 C12        36.5883   31.6146   28.6873 C.ar        1 L04      -0.0610
     13 C13        37.7555   32.0581   29.3443 C.ar        1 L04      -0.0267
     14 C14        38.1527   33.4060   29.2075 C.ar        1 L04      -0.0610
     15 C15        37.3834   34.2986   28.4388 C.ar        1 L04      -0.0596
     16 C16        36.2365   36.2095   23.4432 C.2         1 L04       0.1816
     17 C17        38.9136   30.0598   32.2787 C.ar        1 L04      -0.0282
     18 C18        33.8441   35.7115   24.1830 C.3         1 L04      -0.0186
     19 C19        38.3666   37.2432   22.6940 C.3         1 L04       0.1369
     20 C20        39.0169   38.6146   23.0739 C.3         1 L04      -0.0096
     21 C21        39.6719   39.4200   21.9040 C.3         1 L04      -0.0425
     22 C22        40.2522   40.7713   22.4103 C.3         1 L04      -0.0625
     23 C23        31.1156   37.2994   25.3315 C.3         1 L04      -0.0495
     24 C24        30.0136   38.3975   25.4208 C.3         1 L04      -0.0323
     25 C25        30.4936   39.8486   25.1131 C.3         1 L04       0.0356
     26 C26        29.7873   42.2097   25.0392 C.2         1 L04       0.2046
     27 C27        39.3414   36.1479   22.6151 C.2         1 L04       0.2292
     28 C28        28.3477   40.8055   26.1246 C.3         1 L04       0.0703
     29 C29        28.7950   43.0127   25.5168 C.ar        1 L04       0.0535
     30 C30        40.4534   34.5730   21.0913 C.ar        1 L04       0.0663
     31 C31        40.7494   34.4652   19.7143 C.ar        1 L04      -0.0413
     32 C32        41.5851   33.4436   19.2274 C.ar        1 L04      -0.0755
     33 C33        42.1308   32.5020   20.1159 C.ar        1 L04      -0.0772
     34 C34        41.8303   32.5787   21.4876 C.ar        1 L04      -0.0755
     35 C35        40.9954   33.6045   21.9736 C.ar        1 L04      -0.0413
     36 C36        27.8889   42.1951   26.1876 C.ar        1 L04      -0.0003
     37 C37        28.5898   44.4060   25.4592 C.ar        1 L04      -0.0484
     38 C38        26.7556   42.7318   26.8259 C.ar        1 L04      -0.0524
     39 C39        26.5420   44.1238   26.7697 C.ar        1 L04      -0.0641
     40 C40        27.4548   44.9586   26.0878 C.ar        1 L04      -0.0630
     41 C41        39.9900   29.3488   31.7140 C.ar        1 L04       0.1322
     42 C42        40.3296   29.5477   30.3641 C.ar        1 L04      -0.0282
     43 C43        39.5923   30.4516   29.5753 C.ar        1 L04      -0.0571
     44 N1         29.5674   40.9335   25.3656 N.am        1 L04      -0.2613
     45 N18        37.3295   36.9482   23.6433 N.am        1 L04      -0.2649
     46 N29        39.6043   35.5890   21.4407 N.am        1 L04      -0.2320
     47 O1         30.7510   42.6391   24.4178 O.2         1 L04      -0.3882
     48 O4         33.7758   36.0191   21.3966 O.co2       1 L04      -0.5687
     49 O5         32.5183   37.9658   21.4195 O.co2       1 L04      -0.5687
     50 O17        36.0434   35.6195   22.3761 O.2         1 L04      -0.3966
     51 O28        39.9359   35.8217   23.6356 O.2         1 L04      -0.3823
     52 F1         40.6725   28.5094   32.4426 F           1 L04      -0.1835
     53 H1         30.9087   37.3434   23.1550 H           1 L04       0.0286
     54 H2         31.1964   35.7421   23.8125 H           1 L04       0.0286
     55 H3         33.3929   37.8286   24.0170 H           1 L04       0.0467
     56 H4         39.1151   40.3797   20.0082 H           1 L04       0.0232
     57 H5         37.7488   40.1003   21.0981 H           1 L04       0.0232
     58 H6         38.4699   38.7543   20.1939 H           1 L04       0.0232
     59 H7         37.3981   31.4778   31.9190 H           1 L04       0.0606
     60 H8         35.3193   36.9064   25.1753 H           1 L04       0.0541
     61 H9         37.0401   35.0380   25.5723 H           1 L04       0.0315
     62 H10        35.8207   33.8963   25.0110 H           1 L04       0.0315
     63 H11        34.3719   34.4719   26.9359 H           1 L04       0.0430
     64 H12        35.4210   35.8008   27.3890 H           1 L04       0.0430
     65 H13        34.9905   32.1581   27.4323 H           1 L04       0.0559
     66 H14        36.2852   30.6382   28.7665 H           1 L04       0.0604
     67 H15        39.0030   33.7465   29.6676 H           1 L04       0.0604
     68 H16        37.6913   35.2719   28.3517 H           1 L04       0.0559
     69 H17        38.6641   29.9208   33.2623 H           1 L04       0.0604
     70 H18        33.7875   34.8409   23.5228 H           1 L04       0.0313
     71 H19        33.3198   35.4126   25.1017 H           1 L04       0.0313
     72 H20        37.8705   37.3746   21.7223 H           1 L04       0.0805
     73 H21        39.7692   38.4384   23.8530 H           1 L04       0.0315
     74 H22        38.2528   39.2569   23.5264 H           1 L04       0.0315
     75 H23        40.5140   38.8354   21.5154 H           1 L04       0.0298
     76 H24        41.0140   40.6028   23.1780 H           1 L04       0.0232
     77 H25        39.4662   41.4023   22.8348 H           1 L04       0.0232
     78 H26        40.7252   41.3180   21.5890 H           1 L04       0.0232
     79 H27        31.9950   37.6908   25.8459 H           1 L04       0.0267
     80 H28        30.7820   36.4364   25.9190 H           1 L04       0.0267
     81 H29        29.6264   38.3617   26.4419 H           1 L04       0.0285
     82 H30        29.1874   38.1333   24.7520 H           1 L04       0.0285
     83 H31        30.7854   39.8790   24.0645 H           1 L04       0.0523
     84 H32        31.3904   40.0561   25.7059 H           1 L04       0.0523
     85 H33        28.5379   40.4395   27.1332 H           1 L04       0.0699
     86 H34        27.6113   40.1889   25.6126 H           1 L04       0.0699
     87 H35        40.3602   35.1388   19.0498 H           1 L04       0.0502
     88 H36        41.7904   33.3856   18.2282 H           1 L04       0.0577
     89 H37        42.7347   31.7577   19.7629 H           1 L04       0.0487
     90 H38        42.2132   31.8813   22.1283 H           1 L04       0.0577
     91 H39        40.7683   33.6145   22.9691 H           1 L04       0.0502
     92 H40        29.2532   45.0156   24.9706 H           1 L04       0.0651
     93 H41        26.1049   42.1278   27.3262 H           1 L04       0.0569
     94 H42        25.7210   44.5328   27.2280 H           1 L04       0.0635
     95 H43        27.2900   45.9697   26.0502 H           1 L04       0.0572
     96 H44        41.1142   29.0371   29.9497 H           1 L04       0.0604
     97 H45        39.8517   30.5837   28.5921 H           1 L04       0.0606
     98 H46        37.4074   37.3637   24.5190 H           1 L04       0.1883
     99 H47        39.1513   35.9970   20.6887 H           1 L04       0.2257
@<TRIPOS>BOND
     1     1    23   1
     2     1     2   1
     3     2    18   1
     4     2     3   1
     5     3    49  ar
     6     3    48  ar
     7    18     7   1
     8     7    16   1
     9     7     8   1
    10     8     9   1
    11     9    10   1
    12    10    15  ar
    13    10    11  ar
    14    11    12  ar
    15    12    13  ar
    16    13    14  ar
    17    13     5   1
    18     5    43  ar
    19     5     6  ar
    20     6    17  ar
    21    17    41  ar
    22    41    42  ar
    23    42    43  ar
    24    14    15  ar
    25    16    50   2
    26    16    45  am
    27    45    19   1
    28    19    27   1
    29    19    20   1
    30    20    21   1
    31    21     4   1
    32    21    22   1
    33    27    51   2
    34    27    46  am
    35    46    30   1
    36    30    35  ar
    37    30    31  ar
    38    31    32  ar
    39    32    33  ar
    40    33    34  ar
    41    34    35  ar
    42    23    24   1
    43    24    25   1
    44    25    44   1
    45    44    28   1
    46    44    26  am
    47    26    47   2
    48    26    29   1
    49    29    37  ar
    50    29    36  ar
    51    36    28   1
    52    36    38  ar
    53    38    39  ar
    54    39    40  ar
    55    40    37  ar
    56    41    52   1
    57     1    53   1
    58     1    54   1
    59     2    55   1
    60     4    56   1
    61     4    57   1
    62     4    58   1
    63     6    59   1
    64     7    60   1
    65     8    61   1
    66     8    62   1
    67     9    63   1
    68     9    64   1
    69    11    65   1
    70    12    66   1
    71    14    67   1
    72    15    68   1
    73    17    69   1
    74    18    70   1
    75    18    71   1
    76    19    72   1
    77    20    73   1
    78    20    74   1
    79    21    75   1
    80    22    76   1
    81    22    77   1
    82    22    78   1
    83    23    79   1
    84    23    80   1
    85    24    81   1
    86    24    82   1
    87    25    83   1
    88    25    84   1
    89    28    85   1
    90    28    86   1
    91    31    87   1
    92    32    88   1
    93    33    89   1
    94    34    90   1
    95    35    91   1
    96    37    92   1
    97    38    93   1
    98    39    94   1
    99    40    95   1
   100    42    96   1
   101    43    97   1
   102    45    98   1
   103    46    99   1
@<TRIPOS>SUBSTRUCTURE
     1  L04      1

