@<TRIPOS>MOLECULE
1hfs_ligand_010
    99   103
SMALL
GAST_HUCK
****
This file was generated by PARSER (from files_GN.cpp)

@<TRIPOS>ATOM
      1 C1         34.1334   37.3244   24.6485 C.3         1 L04      -0.0384
      2 C2         33.1842   37.2020   23.4018 C.3         1 L04       0.0141
      3 C3         33.7045   36.2877   22.3571 C.2         1 L04       0.0380
      4 C4         25.6133   38.3171   19.7450 C.3         1 L04      -0.0625
      5 C5         37.3072   40.9190   21.2115 C.ar        1 L04      -0.0257
      6 C6         38.3425   41.8331   21.5190 C.ar        1 L04      -0.0571
      7 C7         31.3063   39.0720   22.7515 C.3         1 L04       0.0523
      8 C8         31.1524   40.5562   23.2557 C.3         1 L04      -0.0232
      9 C9         31.7074   41.7003   22.3544 C.3         1 L04      -0.0166
     10 C10        33.1625   41.6438   22.0394 C.ar        1 L04      -0.0424
     11 C11        34.1391   41.8185   23.0499 C.ar        1 L04      -0.0596
     12 C12        35.5077   41.6147   22.7743 C.ar        1 L04      -0.0610
     13 C13        35.9372   41.2338   21.4822 C.ar        1 L04      -0.0267
     14 C14        34.9676   41.1394   20.4590 C.ar        1 L04      -0.0610
     15 C15        33.6022   41.3514   20.7271 C.ar        1 L04      -0.0596
     16 C16        30.6280   38.8136   21.4700 C.2         1 L04       0.1816
     17 C17        39.6789   41.5450   21.1812 C.ar        1 L04      -0.0282
     18 C18        32.8152   38.6182   22.8060 C.3         1 L04      -0.0186
     19 C19        28.6974   39.2125   19.9381 C.3         1 L04       0.1369
     20 C20        27.4470   40.1629   19.8895 C.3         1 L04      -0.0096
     21 C21        26.0884   39.6209   20.4452 C.3         1 L04      -0.0425
     22 C22        26.0818   39.4771   21.9899 C.3         1 L04      -0.0625
     23 C23        34.8620   36.0340   25.1385 C.3         1 L04      -0.0495
     24 C24        36.2348   35.8103   24.4387 C.3         1 L04      -0.0323
     25 C25        36.7616   34.3611   24.4552 C.3         1 L04       0.0356
     26 C26        36.9537   34.1877   26.9333 C.2         1 L04       0.2046
     27 C27        29.5561   39.4495   18.7851 C.2         1 L04       0.2292
     28 C28        36.6769   32.2341   25.7762 C.3         1 L04       0.0703
     29 C29        36.9281   33.2081   27.8746 C.ar        1 L04       0.0535
     30 C30        30.4302   38.5536   16.7184 C.ar        1 L04       0.0663
     31 C31        31.1275   37.3735   16.3937 C.ar        1 L04      -0.0413
     32 C32        31.9872   37.3341   15.2813 C.ar        1 L04      -0.0755
     33 C33        32.1268   38.4667   14.4618 C.ar        1 L04      -0.0772
     34 C34        31.3984   39.6340   14.7414 C.ar        1 L04      -0.0755
     35 C35        30.5497   39.6805   15.8647 C.ar        1 L04      -0.0413
     36 C36        36.8087   31.9911   27.2036 C.ar        1 L04      -0.0003
     37 C37        36.9946   33.2487   29.2801 C.ar        1 L04      -0.0484
     38 C38        36.8147   30.7744   27.9045 C.ar        1 L04      -0.0524
     39 C39        36.8932   30.8008   29.3104 C.ar        1 L04      -0.0641
     40 C40        36.9656   32.0335   29.9947 C.ar        1 L04      -0.0630
     41 C41        40.0018   40.3318   20.5448 C.ar        1 L04       0.1322
     42 C42        38.9862   39.4015   20.2563 C.ar        1 L04      -0.0282
     43 C43        37.6516   39.6933   20.5898 C.ar        1 L04      -0.0571
     44 N1         36.7737   33.6684   25.7226 N.am        1 L04      -0.2613
     45 N18        29.4445   39.3645   21.1597 N.am        1 L04      -0.2649
     46 N29        29.6717   38.5202   17.8451 N.am        1 L04      -0.2320
     47 O1         37.1236   35.3720   27.2055 O.2         1 L04      -0.3882
     48 O4         33.4490   34.9597   22.4429 O.co2       1 L04      -0.5687
     49 O5         34.6182   36.6907   21.4463 O.co2       1 L04      -0.5687
     50 O17        31.1331   38.0197   20.6800 O.2         1 L04      -0.3966
     51 O28        30.1950   40.4996   18.7376 O.2         1 L04      -0.3823
     52 F1         41.2402   40.0674   20.2223 F           1 L04      -0.1835
     53 H1         34.8956   38.0963   24.4645 H           1 L04       0.0286
     54 H2         33.5254   37.7013   25.4787 H           1 L04       0.0286
     55 H3         32.2634   36.7417   23.7736 H           1 L04       0.0467
     56 H4         24.5462   38.1652   19.9166 H           1 L04       0.0232
     57 H5         26.1465   37.4475   20.1309 H           1 L04       0.0232
     58 H6         25.7772   38.3727   18.6680 H           1 L04       0.0232
     59 H7         38.1338   42.7321   21.9609 H           1 L04       0.0606
     60 H8         30.7710   38.4690   23.4908 H           1 L04       0.0541
     61 H9         31.6087   40.6399   24.2460 H           1 L04       0.0315
     62 H10        30.0920   40.7539   23.4190 H           1 L04       0.0315
     63 H11        31.5186   42.6439   22.8670 H           1 L04       0.0430
     64 H12        31.1178   41.7324   21.4354 H           1 L04       0.0430
     65 H13        33.8546   42.0371   24.0061 H           1 L04       0.0559
     66 H14        36.1792   41.6947   23.5451 H           1 L04       0.0604
     67 H15        35.2416   40.8936   19.5035 H           1 L04       0.0604
     68 H16        32.9300   41.2272   19.9695 H           1 L04       0.0559
     69 H17        40.4146   42.2206   21.3868 H           1 L04       0.0604
     70 H18        33.2296   38.7215   21.7987 H           1 L04       0.0313
     71 H19        33.3564   39.3490   23.4032 H           1 L04       0.0313
     72 H20        28.3438   38.1795   19.9158 H           1 L04       0.0805
     73 H21        27.2492   40.4521   18.8510 H           1 L04       0.0315
     74 H22        27.6837   41.0950   20.4137 H           1 L04       0.0315
     75 H23        25.3386   40.3848   20.2039 H           1 L04       0.0298
     76 H24        26.3794   40.4163   22.4599 H           1 L04       0.0232
     77 H25        26.7722   38.6900   22.3036 H           1 L04       0.0232
     78 H26        25.0783   39.2238   22.3398 H           1 L04       0.0232
     79 H27        34.2090   35.1698   25.0104 H           1 L04       0.0267
     80 H28        35.0552   36.1255   26.2153 H           1 L04       0.0267
     81 H29        36.9733   36.4652   24.9000 H           1 L04       0.0285
     82 H30        36.1596   36.1130   23.3920 H           1 L04       0.0285
     83 H31        37.7892   34.3662   24.0688 H           1 L04       0.0523
     84 H32        36.1613   33.7895   23.7426 H           1 L04       0.0523
     85 H33        37.4885   31.7631   25.2169 H           1 L04       0.0699
     86 H34        35.7058   31.8903   25.4115 H           1 L04       0.0699
     87 H35        31.0376   36.5412   16.9804 H           1 L04       0.0502
     88 H36        32.5019   36.4807   15.0726 H           1 L04       0.0577
     89 H37        32.7345   38.4361   13.6412 H           1 L04       0.0487
     90 H38        31.4761   40.4537   14.1321 H           1 L04       0.0577
     91 H39        30.0147   40.5326   16.0402 H           1 L04       0.0502
     92 H40        37.0568   34.1411   29.7739 H           1 L04       0.0651
     93 H41        36.7675   29.8922   27.4010 H           1 L04       0.0569
     94 H42        36.8960   29.9233   29.8374 H           1 L04       0.0635
     95 H43        37.0055   32.0455   31.0187 H           1 L04       0.0572
     96 H44        39.2156   38.5174   19.8013 H           1 L04       0.0604
     97 H45        36.9320   39.0003   20.3681 H           1 L04       0.0606
     98 H46        29.0544   39.9521   21.8200 H           1 L04       0.1883
     99 H47        29.2304   37.6746   18.0288 H           1 L04       0.2257
@<TRIPOS>BOND
     1     1    23   1
     2     1     2   1
     3     2    18   1
     4     2     3   1
     5     3    49  ar
     6     3    48  ar
     7    18     7   1
     8     7    16   1
     9     7     8   1
    10     8     9   1
    11     9    10   1
    12    10    15  ar
    13    10    11  ar
    14    11    12  ar
    15    12    13  ar
    16    13    14  ar
    17    13     5   1
    18     5    43  ar
    19     5     6  ar
    20     6    17  ar
    21    17    41  ar
    22    41    42  ar
    23    42    43  ar
    24    14    15  ar
    25    16    50   2
    26    16    45  am
    27    45    19   1
    28    19    27   1
    29    19    20   1
    30    20    21   1
    31    21     4   1
    32    21    22   1
    33    27    51   2
    34    27    46  am
    35    46    30   1
    36    30    35  ar
    37    30    31  ar
    38    31    32  ar
    39    32    33  ar
    40    33    34  ar
    41    34    35  ar
    42    23    24   1
    43    24    25   1
    44    25    44   1
    45    44    28   1
    46    44    26  am
    47    26    47   2
    48    26    29   1
    49    29    37  ar
    50    29    36  ar
    51    36    28   1
    52    36    38  ar
    53    38    39  ar
    54    39    40  ar
    55    40    37  ar
    56    41    52   1
    57     1    53   1
    58     1    54   1
    59     2    55   1
    60     4    56   1
    61     4    57   1
    62     4    58   1
    63     6    59   1
    64     7    60   1
    65     8    61   1
    66     8    62   1
    67     9    63   1
    68     9    64   1
    69    11    65   1
    70    12    66   1
    71    14    67   1
    72    15    68   1
    73    17    69   1
    74    18    70   1
    75    18    71   1
    76    19    72   1
    77    20    73   1
    78    20    74   1
    79    21    75   1
    80    22    76   1
    81    22    77   1
    82    22    78   1
    83    23    79   1
    84    23    80   1
    85    24    81   1
    86    24    82   1
    87    25    83   1
    88    25    84   1
    89    28    85   1
    90    28    86   1
    91    31    87   1
    92    32    88   1
    93    33    89   1
    94    34    90   1
    95    35    91   1
    96    37    92   1
    97    38    93   1
    98    39    94   1
    99    40    95   1
   100    42    96   1
   101    43    97   1
   102    45    98   1
   103    46    99   1
@<TRIPOS>SUBSTRUCTURE
     1  L04      1

