@<TRIPOS>MOLECULE
1hfs_ligand_019
    99   103
SMALL
GAST_HUCK
****
This file was generated by PARSER (from files_GN.cpp)

@<TRIPOS>ATOM
      1 C1         33.3766   35.4425   23.4815 C.3         1 L04      -0.0384
      2 C2         32.6764   36.7962   23.8346 C.3         1 L04       0.0141
      3 C3         32.4102   36.8680   25.2984 C.2         1 L04       0.0380
      4 C4         25.4717   37.7548   19.7245 C.3         1 L04      -0.0625
      5 C5         30.0217   43.1098   27.4180 C.ar        1 L04      -0.0257
      6 C6         29.7575   44.4987   27.5071 C.ar        1 L04      -0.0571
      7 C7         30.5359   38.3064   23.1520 C.3         1 L04       0.0523
      8 C8         31.0321   39.4131   22.1294 C.3         1 L04      -0.0232
      9 C9         32.0177   40.4914   22.6791 C.3         1 L04      -0.0166
     10 C10        31.5321   41.2431   23.8718 C.ar        1 L04      -0.0424
     11 C11        32.3276   41.3543   25.0369 C.ar        1 L04      -0.0596
     12 C12        31.8453   41.9991   26.1890 C.ar        1 L04      -0.0610
     13 C13        30.5354   42.5362   26.2226 C.ar        1 L04      -0.0267
     14 C14        29.7498   42.4653   25.0489 C.ar        1 L04      -0.0610
     15 C15        30.2464   41.8371   23.8912 C.ar        1 L04      -0.0596
     16 C16        29.0711   38.1278   23.1281 C.2         1 L04       0.1816
     17 C17        29.2304   45.0555   28.6875 C.ar        1 L04      -0.0282
     18 C18        31.3493   36.9563   23.0211 C.3         1 L04      -0.0186
     19 C19        26.8518   39.2794   23.1837 C.3         1 L04       0.1369
     20 C20        25.9903   38.4996   22.1292 C.3         1 L04      -0.0096
     21 C21        26.4288   38.5858   20.6267 C.3         1 L04      -0.0425
     22 C22        26.5287   40.0427   20.0976 C.3         1 L04      -0.0625
     23 C23        34.7876   35.1639   24.0801 C.3         1 L04      -0.0495
     24 C24        35.9617   35.9717   23.4405 C.3         1 L04      -0.0323
     25 C25        36.6488   36.9524   24.4289 C.3         1 L04       0.0356
     26 C26        38.6881   38.1242   23.6708 C.2         1 L04       0.2046
     27 C27        26.4731   38.9549   24.5624 C.2         1 L04       0.2292
     28 C28        36.6877   39.0983   23.1229 C.3         1 L04       0.0703
     29 C29        39.0069   39.2487   22.9630 C.ar        1 L04       0.0535
     30 C30        24.7488   39.0797   26.2588 C.ar        1 L04       0.0663
     31 C31        25.1815   38.0662   27.1524 C.ar        1 L04      -0.0413
     32 C32        24.6600   37.9795   28.4536 C.ar        1 L04      -0.0755
     33 C33        23.6883   38.9006   28.8833 C.ar        1 L04      -0.0772
     34 C34        23.2252   39.8928   27.9992 C.ar        1 L04      -0.0755
     35 C35        23.7454   39.9751   26.6951 C.ar        1 L04      -0.0413
     36 C36        37.8141   39.8761   22.6086 C.ar        1 L04      -0.0003
     37 C37        40.2445   39.8035   22.5824 C.ar        1 L04      -0.0484
     38 C38        37.8098   41.0707   21.8658 C.ar        1 L04      -0.0524
     39 C39        39.0420   41.6283   21.4753 C.ar        1 L04      -0.0641
     40 C40        40.2537   40.9982   21.8329 C.ar        1 L04      -0.0630
     41 C41        28.9508   44.2288   29.7933 C.ar        1 L04       0.1322
     42 C42        29.2061   42.8462   29.7185 C.ar        1 L04      -0.0282
     43 C43        29.7457   42.2936   28.5438 C.ar        1 L04      -0.0571
     44 N1         37.3693   38.0022   23.7617 N.am        1 L04      -0.2613
     45 N18        28.2795   39.1877   22.9787 N.am        1 L04      -0.2649
     46 N29        25.2482   39.2485   24.9971 N.am        1 L04      -0.2320
     47 O1         39.5198   37.3551   24.1352 O.2         1 L04      -0.3882
     48 O4         33.3390   37.2882   26.1835 O.co2       1 L04      -0.5687
     49 O5         31.2248   36.4663   25.8204 O.co2       1 L04      -0.5687
     50 O17        28.5469   37.0595   23.4489 O.2         1 L04      -0.3966
     51 O28        27.3268   38.5396   25.3352 O.2         1 L04      -0.3823
     52 F1         28.4538   44.7416   30.8886 F           1 L04      -0.1835
     53 H1         32.7220   34.6197   23.7878 H           1 L04       0.0286
     54 H2         33.4846   35.3733   22.3999 H           1 L04       0.0286
     55 H3         33.3498   37.6134   23.5602 H           1 L04       0.0467
     56 H4         25.8522   37.7115   18.7013 H           1 L04       0.0232
     57 H5         24.4763   38.2007   19.7065 H           1 L04       0.0232
     58 H6         25.3850   36.7320   20.0953 H           1 L04       0.0232
     59 H7         29.9622   45.1183   26.7176 H           1 L04       0.0606
     60 H8         30.7183   38.6606   24.1684 H           1 L04       0.0541
     61 H9         30.1706   39.9528   21.7146 H           1 L04       0.0315
     62 H10        31.5230   38.9358   21.2731 H           1 L04       0.0315
     63 H11        32.2063   41.2180   21.8885 H           1 L04       0.0430
     64 H12        32.9732   40.0085   22.8940 H           1 L04       0.0430
     65 H13        33.2706   40.9567   25.0614 H           1 L04       0.0559
     66 H14        32.4523   42.0737   27.0099 H           1 L04       0.0604
     67 H15        28.8014   42.8533   25.0402 H           1 L04       0.0604
     68 H16        29.6545   41.8066   23.0607 H           1 L04       0.0559
     69 H17        29.0538   46.0625   28.7423 H           1 L04       0.0604
     70 H18        30.7274   36.1015   23.3180 H           1 L04       0.0313
     71 H19        31.5608   36.8058   21.9602 H           1 L04       0.0313
     72 H20        26.6210   40.3358   23.0552 H           1 L04       0.0805
     73 H21        24.9585   38.8545   22.1965 H           1 L04       0.0315
     74 H22        25.9753   37.4397   22.4117 H           1 L04       0.0315
     75 H23        27.4214   38.1382   20.5316 H           1 L04       0.0298
     76 H24        27.2444   40.6206   20.6850 H           1 L04       0.0232
     77 H25        25.5549   40.5336   20.1386 H           1 L04       0.0232
     78 H26        26.8747   40.0461   19.0619 H           1 L04       0.0232
     79 H27        34.9954   34.0993   23.9284 H           1 L04       0.0267
     80 H28        34.7502   35.3146   25.1635 H           1 L04       0.0267
     81 H29        35.6004   36.5208   22.5670 H           1 L04       0.0285
     82 H30        36.7293   35.2773   23.0761 H           1 L04       0.0285
     83 H31        37.3121   36.3856   25.0828 H           1 L04       0.0523
     84 H32        35.8947   37.4083   25.0676 H           1 L04       0.0523
     85 H33        36.1119   39.6888   23.8449 H           1 L04       0.0699
     86 H34        36.0459   38.7671   22.2990 H           1 L04       0.0699
     87 H35        25.8697   37.3698   26.8564 H           1 L04       0.0502
     88 H36        24.9843   37.2441   29.0866 H           1 L04       0.0577
     89 H37        23.3135   38.8414   29.8293 H           1 L04       0.0487
     90 H38        22.5077   40.5546   28.3065 H           1 L04       0.0577
     91 H39        23.4023   40.7090   26.0663 H           1 L04       0.0502
     92 H40        41.1214   39.3465   22.8468 H           1 L04       0.0651
     93 H41        36.9263   41.5223   21.6169 H           1 L04       0.0569
     94 H42        39.0560   42.4923   20.9383 H           1 L04       0.0635
     95 H43        41.1421   41.4096   21.5502 H           1 L04       0.0572
     96 H44        29.0011   42.2414   30.5172 H           1 L04       0.0604
     97 H45        29.9189   41.2857   28.5067 H           1 L04       0.0606
     98 H46        28.7318   40.0304   22.7881 H           1 L04       0.1883
     99 H47        24.6643   39.7148   24.3777 H           1 L04       0.2257
@<TRIPOS>BOND
     1     1    23   1
     2     1     2   1
     3     2    18   1
     4     2     3   1
     5     3    49  ar
     6     3    48  ar
     7    18     7   1
     8     7    16   1
     9     7     8   1
    10     8     9   1
    11     9    10   1
    12    10    15  ar
    13    10    11  ar
    14    11    12  ar
    15    12    13  ar
    16    13    14  ar
    17    13     5   1
    18     5    43  ar
    19     5     6  ar
    20     6    17  ar
    21    17    41  ar
    22    41    42  ar
    23    42    43  ar
    24    14    15  ar
    25    16    50   2
    26    16    45  am
    27    45    19   1
    28    19    27   1
    29    19    20   1
    30    20    21   1
    31    21     4   1
    32    21    22   1
    33    27    51   2
    34    27    46  am
    35    46    30   1
    36    30    35  ar
    37    30    31  ar
    38    31    32  ar
    39    32    33  ar
    40    33    34  ar
    41    34    35  ar
    42    23    24   1
    43    24    25   1
    44    25    44   1
    45    44    28   1
    46    44    26  am
    47    26    47   2
    48    26    29   1
    49    29    37  ar
    50    29    36  ar
    51    36    28   1
    52    36    38  ar
    53    38    39  ar
    54    39    40  ar
    55    40    37  ar
    56    41    52   1
    57     1    53   1
    58     1    54   1
    59     2    55   1
    60     4    56   1
    61     4    57   1
    62     4    58   1
    63     6    59   1
    64     7    60   1
    65     8    61   1
    66     8    62   1
    67     9    63   1
    68     9    64   1
    69    11    65   1
    70    12    66   1
    71    14    67   1
    72    15    68   1
    73    17    69   1
    74    18    70   1
    75    18    71   1
    76    19    72   1
    77    20    73   1
    78    20    74   1
    79    21    75   1
    80    22    76   1
    81    22    77   1
    82    22    78   1
    83    23    79   1
    84    23    80   1
    85    24    81   1
    86    24    82   1
    87    25    83   1
    88    25    84   1
    89    28    85   1
    90    28    86   1
    91    31    87   1
    92    32    88   1
    93    33    89   1
    94    34    90   1
    95    35    91   1
    96    37    92   1
    97    38    93   1
    98    39    94   1
    99    40    95   1
   100    42    96   1
   101    43    97   1
   102    45    98   1
   103    46    99   1
@<TRIPOS>SUBSTRUCTURE
     1  L04      1

