@<TRIPOS>MOLECULE
1hfs_ligand_092
    99   103
SMALL
GAST_HUCK
****
This file was generated by PARSER (from files_GN.cpp)

@<TRIPOS>ATOM
      1 C1         25.5650   39.3059   25.6622 C.3         1 L04      -0.0384
      2 C2         26.6264   39.4784   24.5238 C.3         1 L04       0.0141
      3 C3         27.0286   38.1668   23.9519 C.2         1 L04       0.0380
      4 C4         33.4420   37.0427   22.0394 C.3         1 L04      -0.0625
      5 C5         30.9753   45.3897   29.4418 C.ar        1 L04      -0.0257
      6 C6         30.3378   46.6561   29.3440 C.ar        1 L04      -0.0571
      7 C7         29.1080   39.9108   25.6701 C.3         1 L04       0.0523
      8 C8         28.7958   39.5023   27.1534 C.3         1 L04      -0.0232
      9 C9         28.0956   40.5497   28.0709 C.3         1 L04      -0.0166
     10 C10        28.8975   41.7716   28.3599 C.ar        1 L04      -0.0424
     11 C11        29.8629   41.7691   29.3887 C.ar        1 L04      -0.0596
     12 C12        30.5378   42.9539   29.7448 C.ar        1 L04      -0.0610
     13 C13        30.3021   44.1751   29.0626 C.ar        1 L04      -0.0267
     14 C14        29.3635   44.1534   27.9989 C.ar        1 L04      -0.0610
     15 C15        28.6589   42.9799   27.6701 C.ar        1 L04      -0.0596
     16 C16        29.8959   38.9187   24.9129 C.2         1 L04       0.1816
     17 C17        30.9975   47.8435   29.7210 C.ar        1 L04      -0.0282
     18 C18        27.8337   40.4242   24.8861 C.3         1 L04      -0.0186
     19 C19        31.4020   36.8717   24.9787 C.3         1 L04       0.1369
     20 C20        31.3009   36.5140   23.4571 C.3         1 L04      -0.0096
     21 C21        31.9944   37.4743   22.4191 C.3         1 L04      -0.0425
     22 C22        31.1355   37.6199   21.1277 C.3         1 L04      -0.0625
     23 C23        24.1796   38.7656   25.1699 C.3         1 L04      -0.0495
     24 C24        23.0341   39.8223   25.1904 C.3         1 L04      -0.0323
     25 C25        21.9573   39.5798   24.0934 C.3         1 L04       0.0356
     26 C26        20.0981   40.7926   23.0468 C.2         1 L04       0.2046
     27 C27        32.7709   36.7347   25.4756 C.2         1 L04       0.2292
     28 C28        20.2696   41.0382   25.3156 C.3         1 L04       0.0703
     29 C29        19.0392   41.5666   23.4137 C.ar        1 L04       0.0535
     30 C30        34.4560   35.0905   26.1826 C.ar        1 L04       0.0663
     31 C31        34.8160   33.7541   25.8958 C.ar        1 L04      -0.0413
     32 C32        36.0330   33.2122   26.3475 C.ar        1 L04      -0.0755
     33 C33        36.9094   33.9985   27.1132 C.ar        1 L04      -0.0772
     34 C34        36.5576   35.3185   27.4390 C.ar        1 L04      -0.0755
     35 C35        35.3372   35.8611   26.9849 C.ar        1 L04      -0.0413
     36 C36        19.1071   41.7438   24.7906 C.ar        1 L04      -0.0003
     37 C37        17.9929   42.1416   22.6668 C.ar        1 L04      -0.0484
     38 C38        18.1423   42.5072   25.4762 C.ar        1 L04      -0.0524
     39 C39        17.0948   43.0939   24.7365 C.ar        1 L04      -0.0641
     40 C40        17.0198   42.9114   23.3388 C.ar        1 L04      -0.0630
     41 C41        32.3115   47.7935   30.2109 C.ar        1 L04       0.1322
     42 C42        32.9670   46.5537   30.3208 C.ar        1 L04      -0.0282
     43 C43        32.3080   45.3724   29.9347 C.ar        1 L04      -0.0571
     44 N1         20.8335   40.4852   24.1138 N.am        1 L04      -0.2613
     45 N18        30.7295   38.0522   25.4919 N.am        1 L04      -0.2649
     46 N29        33.2426   35.5148   25.7175 N.am        1 L04      -0.2320
     47 O1         20.2944   40.4183   21.9002 O.2         1 L04      -0.3882
     48 O4         27.4721   37.1560   24.7383 O.co2       1 L04      -0.5687
     49 O5         26.8825   37.9096   22.6301 O.co2       1 L04      -0.5687
     50 O17        29.7615   38.8927   23.6814 O.2         1 L04      -0.3966
     51 O28        33.4720   37.7388   25.5646 O.2         1 L04      -0.3823
     52 F1         32.9223   48.8892   30.5651 F           1 L04      -0.1835
     53 H1         25.9583   38.6186   26.4153 H           1 L04       0.0286
     54 H2         25.4200   40.2668   26.1655 H           1 L04       0.0286
     55 H3         26.0937   40.0130   23.7267 H           1 L04       0.0467
     56 H4         33.8887   37.7719   21.3575 H           1 L04       0.0232
     57 H5         33.4440   36.0715   21.5445 H           1 L04       0.0232
     58 H6         34.0753   36.9808   22.9228 H           1 L04       0.0232
     59 H7         29.3737   46.7292   29.0117 H           1 L04       0.0606
     60 H8         29.7782   40.7721   25.7430 H           1 L04       0.0541
     61 H9         29.7362   39.2545   27.6511 H           1 L04       0.0315
     62 H10        28.1876   38.5929   27.1354 H           1 L04       0.0315
     63 H11        27.8617   40.0589   29.0217 H           1 L04       0.0430
     64 H12        27.1352   40.8312   27.6435 H           1 L04       0.0430
     65 H13        30.0584   40.9099   29.9052 H           1 L04       0.0559
     66 H14        31.1894   42.9122   30.5324 H           1 L04       0.0604
     67 H15        29.1818   44.9946   27.4485 H           1 L04       0.0604
     68 H16        27.9656   43.0195   26.9242 H           1 L04       0.0559
     69 H17        30.5160   48.7412   29.6386 H           1 L04       0.0604
     70 H18        27.4264   41.2847   25.4122 H           1 L04       0.0313
     71 H19        28.1997   40.8388   23.9400 H           1 L04       0.0313
     72 H20        30.8338   36.0753   25.4824 H           1 L04       0.0805
     73 H21        30.2324   36.4326   23.2314 H           1 L04       0.0315
     74 H22        31.6995   35.5037   23.3206 H           1 L04       0.0315
     75 H23        32.0879   38.4660   22.8704 H           1 L04       0.0298
     76 H24        30.1041   37.8896   21.3778 H           1 L04       0.0232
     77 H25        31.1128   36.6764   20.5720 H           1 L04       0.0232
     78 H26        31.5412   38.4012   20.4770 H           1 L04       0.0232
     79 H27        23.8809   37.9325   25.8129 H           1 L04       0.0267
     80 H28        24.2740   38.3538   24.1604 H           1 L04       0.0267
     81 H29        23.4378   40.8287   25.0400 H           1 L04       0.0285
     82 H30        22.5722   39.7956   26.1829 H           1 L04       0.0285
     83 H31        21.5752   38.5603   24.1861 H           1 L04       0.0523
     84 H32        22.4678   39.6564   23.1283 H           1 L04       0.0523
     85 H33        20.9537   41.7399   25.7992 H           1 L04       0.0699
     86 H34        19.9630   40.2530   26.0111 H           1 L04       0.0699
     87 H35        34.1902   33.1588   25.3437 H           1 L04       0.0502
     88 H36        36.2825   32.2457   26.1191 H           1 L04       0.0577
     89 H37        37.7974   33.6085   27.4397 H           1 L04       0.0487
     90 H38        37.1866   35.8850   28.0154 H           1 L04       0.0577
     91 H39        35.0828   36.8054   27.2756 H           1 L04       0.0502
     92 H40        17.9369   42.0070   21.6542 H           1 L04       0.0651
     93 H41        18.2025   42.6305   26.4876 H           1 L04       0.0569
     94 H42        16.3877   43.6523   25.2178 H           1 L04       0.0635
     95 H43        16.2553   43.3372   22.8100 H           1 L04       0.0572
     96 H44        33.9222   46.5092   30.6763 H           1 L04       0.0604
     97 H45        32.8234   44.4917   29.9974 H           1 L04       0.0606
     98 H46        30.8056   38.1480   26.4546 H           1 L04       0.1883
     99 H47        32.6309   34.7939   25.4898 H           1 L04       0.2257
@<TRIPOS>BOND
     1     1    23   1
     2     1     2   1
     3     2    18   1
     4     2     3   1
     5     3    49  ar
     6     3    48  ar
     7    18     7   1
     8     7    16   1
     9     7     8   1
    10     8     9   1
    11     9    10   1
    12    10    15  ar
    13    10    11  ar
    14    11    12  ar
    15    12    13  ar
    16    13    14  ar
    17    13     5   1
    18     5    43  ar
    19     5     6  ar
    20     6    17  ar
    21    17    41  ar
    22    41    42  ar
    23    42    43  ar
    24    14    15  ar
    25    16    50   2
    26    16    45  am
    27    45    19   1
    28    19    27   1
    29    19    20   1
    30    20    21   1
    31    21     4   1
    32    21    22   1
    33    27    51   2
    34    27    46  am
    35    46    30   1
    36    30    35  ar
    37    30    31  ar
    38    31    32  ar
    39    32    33  ar
    40    33    34  ar
    41    34    35  ar
    42    23    24   1
    43    24    25   1
    44    25    44   1
    45    44    28   1
    46    44    26  am
    47    26    47   2
    48    26    29   1
    49    29    37  ar
    50    29    36  ar
    51    36    28   1
    52    36    38  ar
    53    38    39  ar
    54    39    40  ar
    55    40    37  ar
    56    41    52   1
    57     1    53   1
    58     1    54   1
    59     2    55   1
    60     4    56   1
    61     4    57   1
    62     4    58   1
    63     6    59   1
    64     7    60   1
    65     8    61   1
    66     8    62   1
    67     9    63   1
    68     9    64   1
    69    11    65   1
    70    12    66   1
    71    14    67   1
    72    15    68   1
    73    17    69   1
    74    18    70   1
    75    18    71   1
    76    19    72   1
    77    20    73   1
    78    20    74   1
    79    21    75   1
    80    22    76   1
    81    22    77   1
    82    22    78   1
    83    23    79   1
    84    23    80   1
    85    24    81   1
    86    24    82   1
    87    25    83   1
    88    25    84   1
    89    28    85   1
    90    28    86   1
    91    31    87   1
    92    32    88   1
    93    33    89   1
    94    34    90   1
    95    35    91   1
    96    37    92   1
    97    38    93   1
    98    39    94   1
    99    40    95   1
   100    42    96   1
   101    43    97   1
   102    45    98   1
   103    46    99   1
@<TRIPOS>SUBSTRUCTURE
     1  L04      1

