@<TRIPOS>MOLECULE
1hfs_ligand_036
    99   103
SMALL
GAST_HUCK
****
This file was generated by PARSER (from files_GN.cpp)

@<TRIPOS>ATOM
      1 C1         30.6646   38.7251   25.8587 C.3         1 L04      -0.0384
      2 C2         30.7494   37.3976   25.0347 C.3         1 L04       0.0141
      3 C3         32.1714   36.9764   24.9457 C.2         1 L04       0.0380
      4 C4         25.2256   36.6786   21.4552 C.3         1 L04      -0.0625
      5 C5         28.4708   42.1285   16.0109 C.ar        1 L04      -0.0257
      6 C6         28.2258   43.5257   16.0568 C.ar        1 L04      -0.0571
      7 C7         30.0939   38.6397   22.7154 C.3         1 L04       0.0523
      8 C8         30.4147   38.3444   21.2016 C.3         1 L04      -0.0232
      9 C9         31.1376   39.4992   20.4256 C.3         1 L04      -0.0166
     10 C10        30.3851   40.1010   19.2858 C.ar        1 L04      -0.0424
     11 C11        30.7209   39.7973   17.9429 C.ar        1 L04      -0.0596
     12 C12        30.0929   40.4587   16.8717 C.ar        1 L04      -0.0610
     13 C13        29.1086   41.4521   17.0965 C.ar        1 L04      -0.0267
     14 C14        28.7686   41.7452   18.4418 C.ar        1 L04      -0.0610
     15 C15        29.3949   41.0823   19.5134 C.ar        1 L04      -0.0596
     16 C16        28.8858   39.4762   22.8166 C.2         1 L04       0.1816
     17 C17        27.5373   44.1801   15.0185 C.ar        1 L04      -0.0282
     18 C18        29.9979   37.3660   23.6539 C.3         1 L04      -0.0186
     19 C19        26.3868   39.5397   22.5975 C.3         1 L04       0.1369
     20 C20        25.7141   39.2623   21.2093 C.3         1 L04      -0.0096
     21 C21        25.8225   37.8230   20.5880 C.3         1 L04      -0.0425
     22 C22        25.1898   37.8138   19.1722 C.3         1 L04      -0.0625
     23 C23        29.2522   39.1052   26.3854 C.3         1 L04      -0.0495
     24 C24        29.2456   40.1316   27.5539 C.3         1 L04      -0.0323
     25 C25        29.6201   41.6015   27.1871 C.3         1 L04       0.0356
     26 C26        28.5436   43.4398   25.9488 C.2         1 L04       0.2046
     27 C27        25.5951   39.1554   23.7704 C.2         1 L04       0.2292
     28 C28        27.3761   42.6324   27.7447 C.3         1 L04       0.0703
     29 C29        27.5171   44.3134   26.1483 C.ar        1 L04       0.0535
     30 C30        25.3290   39.2883   26.1489 C.ar        1 L04       0.0663
     31 C31        25.7553   38.2664   27.0287 C.ar        1 L04      -0.0413
     32 C32        25.0879   38.0648   28.2553 C.ar        1 L04      -0.0755
     33 C33        23.9843   38.8665   28.5954 C.ar        1 L04      -0.0772
     34 C34        23.5501   39.8755   27.7173 C.ar        1 L04      -0.0755
     35 C35        24.2280   40.0899   26.5015 C.ar        1 L04      -0.0413
     36 C36        26.7743   43.8563   27.2323 C.ar        1 L04      -0.0003
     37 C37        27.1870   45.5313   25.5209 C.ar        1 L04      -0.0484
     38 C38        25.6636   44.5740   27.7117 C.ar        1 L04      -0.0524
     39 C39        25.3196   45.7877   27.0854 C.ar        1 L04      -0.0641
     40 C40        26.0798   46.2657   25.9947 C.ar        1 L04      -0.0630
     41 C41        27.0849   43.4521   13.9030 C.ar        1 L04       0.1322
     42 C42        27.3385   42.0698   13.8261 C.ar        1 L04      -0.0282
     43 C43        28.0267   41.4181   14.8663 C.ar        1 L04      -0.0571
     44 N1         28.5147   42.4822   26.8732 N.am        1 L04      -0.2613
     45 N18        27.6891   38.9278   22.6097 N.am        1 L04      -0.2649
     46 N29        25.9999   39.5168   24.9834 N.am        1 L04      -0.2320
     47 O1         29.4079   43.6108   25.0996 O.2         1 L04      -0.3882
     48 O4         32.8103   36.5789   26.0692 O.co2       1 L04      -0.5687
     49 O5         32.8404   36.8978   23.7745 O.co2       1 L04      -0.5687
     50 O17        28.9984   40.6650   23.0890 O.2         1 L04      -0.3966
     51 O28        24.5051   38.6099   23.6471 O.2         1 L04      -0.3823
     52 F1         26.4318   44.0547   12.9446 F           1 L04      -0.1835
     53 H1         31.3020   38.6110   26.7376 H           1 L04       0.0286
     54 H2         31.0693   39.5567   25.2879 H           1 L04       0.0286
     55 H3         30.2784   36.6197   25.6444 H           1 L04       0.0467
     56 H4         25.3050   35.7218   20.9403 H           1 L04       0.0232
     57 H5         24.1718   36.8617   21.6747 H           1 L04       0.0232
     58 H6         25.7752   36.5831   22.3943 H           1 L04       0.0232
     59 H7         28.5465   44.0848   16.8501 H           1 L04       0.0606
     60 H8         30.9495   39.2094   23.0739 H           1 L04       0.0541
     61 H9         29.5096   38.0420   20.6791 H           1 L04       0.0315
     62 H10        31.0778   37.4762   21.1674 H           1 L04       0.0315
     63 H11        32.0892   39.1102   20.0568 H           1 L04       0.0430
     64 H12        31.4156   40.3110   21.1021 H           1 L04       0.0430
     65 H13        31.4393   39.0989   17.7375 H           1 L04       0.0559
     66 H14        30.3813   40.2224   15.9185 H           1 L04       0.0604
     67 H15        28.0582   42.4500   18.6569 H           1 L04       0.0604
     68 H16        29.1353   41.3407   20.4686 H           1 L04       0.0559
     69 H17        27.3649   45.1882   15.0745 H           1 L04       0.0604
     70 H18        28.9536   37.1311   23.8803 H           1 L04       0.0313
     71 H19        30.3553   36.4886   23.1117 H           1 L04       0.0313
     72 H20        26.5017   40.6237   22.6699 H           1 L04       0.0805
     73 H21        26.1687   39.9538   20.4955 H           1 L04       0.0315
     74 H22        24.6565   39.5401   21.2601 H           1 L04       0.0315
     75 H23        26.8833   37.6017   20.4458 H           1 L04       0.0298
     76 H24        25.7751   38.4510   18.5083 H           1 L04       0.0232
     77 H25        24.1676   38.1932   19.2078 H           1 L04       0.0232
     78 H26        25.1765   36.8089   18.7448 H           1 L04       0.0232
     79 H27        28.7713   38.1979   26.7411 H           1 L04       0.0267
     80 H28        28.6592   39.4903   25.5657 H           1 L04       0.0267
     81 H29        29.9553   39.7814   28.3089 H           1 L04       0.0285
     82 H30        28.2625   40.1005   28.0180 H           1 L04       0.0285
     83 H31        30.3606   41.5942   26.3866 H           1 L04       0.0523
     84 H32        30.1256   42.0368   28.0521 H           1 L04       0.0523
     85 H33        27.6637   42.7587   28.7904 H           1 L04       0.0699
     86 H34        26.6741   41.8017   27.6378 H           1 L04       0.0699
     87 H35        26.5308   37.6554   26.7795 H           1 L04       0.0502
     88 H36        25.3999   37.3346   28.8957 H           1 L04       0.0577
     89 H37        23.4924   38.7145   29.4778 H           1 L04       0.0487
     90 H38        22.7484   40.4606   27.9625 H           1 L04       0.0577
     91 H39        23.9119   40.8349   25.8715 H           1 L04       0.0502
     92 H40        27.7589   45.8907   24.7552 H           1 L04       0.0651
     93 H41        25.1344   44.2354   28.5181 H           1 L04       0.0569
     94 H42        24.5245   46.3309   27.4284 H           1 L04       0.0635
     95 H43        25.8385   47.1583   25.5600 H           1 L04       0.0572
     96 H44        27.0069   41.5350   13.0185 H           1 L04       0.0604
     97 H45        28.1695   40.4075   14.7906 H           1 L04       0.0606
     98 H46        27.7007   37.9775   22.4195 H           1 L04       0.1883
     99 H47        26.8166   40.0309   25.0423 H           1 L04       0.2257
@<TRIPOS>BOND
     1     1    23   1
     2     1     2   1
     3     2    18   1
     4     2     3   1
     5     3    49  ar
     6     3    48  ar
     7    18     7   1
     8     7    16   1
     9     7     8   1
    10     8     9   1
    11     9    10   1
    12    10    15  ar
    13    10    11  ar
    14    11    12  ar
    15    12    13  ar
    16    13    14  ar
    17    13     5   1
    18     5    43  ar
    19     5     6  ar
    20     6    17  ar
    21    17    41  ar
    22    41    42  ar
    23    42    43  ar
    24    14    15  ar
    25    16    50   2
    26    16    45  am
    27    45    19   1
    28    19    27   1
    29    19    20   1
    30    20    21   1
    31    21     4   1
    32    21    22   1
    33    27    51   2
    34    27    46  am
    35    46    30   1
    36    30    35  ar
    37    30    31  ar
    38    31    32  ar
    39    32    33  ar
    40    33    34  ar
    41    34    35  ar
    42    23    24   1
    43    24    25   1
    44    25    44   1
    45    44    28   1
    46    44    26  am
    47    26    47   2
    48    26    29   1
    49    29    37  ar
    50    29    36  ar
    51    36    28   1
    52    36    38  ar
    53    38    39  ar
    54    39    40  ar
    55    40    37  ar
    56    41    52   1
    57     1    53   1
    58     1    54   1
    59     2    55   1
    60     4    56   1
    61     4    57   1
    62     4    58   1
    63     6    59   1
    64     7    60   1
    65     8    61   1
    66     8    62   1
    67     9    63   1
    68     9    64   1
    69    11    65   1
    70    12    66   1
    71    14    67   1
    72    15    68   1
    73    17    69   1
    74    18    70   1
    75    18    71   1
    76    19    72   1
    77    20    73   1
    78    20    74   1
    79    21    75   1
    80    22    76   1
    81    22    77   1
    82    22    78   1
    83    23    79   1
    84    23    80   1
    85    24    81   1
    86    24    82   1
    87    25    83   1
    88    25    84   1
    89    28    85   1
    90    28    86   1
    91    31    87   1
    92    32    88   1
    93    33    89   1
    94    34    90   1
    95    35    91   1
    96    37    92   1
    97    38    93   1
    98    39    94   1
    99    40    95   1
   100    42    96   1
   101    43    97   1
   102    45    98   1
   103    46    99   1
@<TRIPOS>SUBSTRUCTURE
     1  L04      1

