@<TRIPOS>MOLECULE
1hfs_ligand_025
    99   103
SMALL
GAST_HUCK
****
This file was generated by PARSER (from files_GN.cpp)

@<TRIPOS>ATOM
      1 C1         30.5027   37.1154   22.8508 C.3         1 L04      -0.0384
      2 C2         31.6850   36.9455   23.8812 C.3         1 L04       0.0141
      3 C3         31.8274   38.1078   24.7909 C.2         1 L04       0.0380
      4 C4         39.4932   39.2519   20.1729 C.3         1 L04      -0.0625
      5 C5         37.3117   31.8611   29.5268 C.ar        1 L04      -0.0257
      6 C6         37.6130   30.4782   29.5227 C.ar        1 L04      -0.0571
      7 C7         34.4143   36.8607   23.8540 C.3         1 L04       0.0523
      8 C8         34.7302   35.9736   25.1074 C.3         1 L04      -0.0232
      9 C9         35.2923   34.5432   24.8253 C.3         1 L04      -0.0166
     10 C10        35.7958   33.8486   26.0474 C.ar        1 L04      -0.0424
     11 C11        36.9213   34.3518   26.7422 C.ar        1 L04      -0.0596
     12 C12        37.4178   33.6979   27.8852 C.ar        1 L04      -0.0610
     13 C13        36.8163   32.5077   28.3585 C.ar        1 L04      -0.0267
     14 C14        35.7139   31.9856   27.6433 C.ar        1 L04      -0.0610
     15 C15        35.2038   32.6513   26.5107 C.ar        1 L04      -0.0596
     16 C16        35.5400   36.9059   22.9128 C.2         1 L04       0.1816
     17 C17        38.1334   29.8530   30.6716 C.ar        1 L04      -0.0282
     18 C18        33.0323   36.5728   23.1538 C.3         1 L04      -0.0186
     19 C19        37.7867   37.8046   22.3834 C.3         1 L04       0.1369
     20 C20        38.2273   39.3002   22.4626 C.3         1 L04      -0.0096
     21 C21        39.5012   39.7274   21.6546 C.3         1 L04      -0.0425
     22 C22        39.6924   41.2709   21.7218 C.3         1 L04      -0.0625
     23 C23        29.3007   38.0750   23.1688 C.3         1 L04      -0.0495
     24 C24        29.3657   39.4589   22.4492 C.3         1 L04      -0.0323
     25 C25        29.1187   39.3760   20.9090 C.3         1 L04       0.0356
     26 C26        31.1538   40.4122   19.9924 C.2         1 L04       0.2046
     27 C27        38.8335   36.8698   22.7832 C.2         1 L04       0.2292
     28 C28        29.1656   41.2646   19.2347 C.3         1 L04       0.0703
     29 C29        31.4887   41.3409   19.0626 C.ar        1 L04       0.0535
     30 C30        40.3414   35.1205   21.9153 C.ar        1 L04       0.0663
     31 C31        40.6066   34.4636   20.6928 C.ar        1 L04      -0.0413
     32 C32        41.6328   33.5074   20.5844 C.ar        1 L04      -0.0755
     33 C33        42.4196   33.1960   21.7072 C.ar        1 L04      -0.0772
     34 C34        42.1775   33.8409   22.9306 C.ar        1 L04      -0.0755
     35 C35        41.1451   34.7949   23.0373 C.ar        1 L04      -0.0413
     36 C36        30.3081   41.8880   18.5619 C.ar        1 L04      -0.0003
     37 C37        32.7402   41.7623   18.5726 C.ar        1 L04      -0.0484
     38 C38        30.3359   42.8589   17.5438 C.ar        1 L04      -0.0524
     39 C39        31.5849   43.2880   17.0443 C.ar        1 L04      -0.0641
     40 C40        32.7814   42.7420   17.5611 C.ar        1 L04      -0.0630
     41 C41        38.3417   30.5953   31.8492 C.ar        1 L04       0.1322
     42 C42        38.0316   31.9656   31.8733 C.ar        1 L04      -0.0282
     43 C43        37.5281   32.5950   30.7185 C.ar        1 L04      -0.0571
     44 N1         29.8283   40.3466   20.1161 N.am        1 L04      -0.2613
     45 N18        36.6342   37.5978   23.2230 N.am        1 L04      -0.2649
     46 N29        39.3239   36.0359   21.8727 N.am        1 L04      -0.2320
     47 O1         31.9698   39.7017   20.5592 O.2         1 L04      -0.3882
     48 O4         31.8483   37.8928   26.1269 O.co2       1 L04      -0.5687
     49 O5         32.1662   39.3292   24.3174 O.co2       1 L04      -0.5687
     50 O17        35.4856   36.2538   21.8767 O.2         1 L04      -0.3966
     51 O28        39.2273   36.8923   23.9412 O.2         1 L04      -0.3823
     52 F1         38.8251   30.0121   32.9125 F           1 L04      -0.1835
     53 H1         30.9139   37.4137   21.8846 H           1 L04       0.0286
     54 H2         30.0840   36.1179   22.6901 H           1 L04       0.0286
     55 H3         31.4193   36.0866   24.5143 H           1 L04       0.0467
     56 H4         40.3422   39.6750   19.6282 H           1 L04       0.0232
     57 H5         38.5693   39.5608   19.6774 H           1 L04       0.0232
     58 H6         39.5763   38.1641   20.1189 H           1 L04       0.0232
     59 H7         37.4788   29.9191   28.6754 H           1 L04       0.0606
     60 H8         34.3321   37.8842   24.2246 H           1 L04       0.0541
     61 H9         33.8309   35.8783   25.7242 H           1 L04       0.0315
     62 H10        35.4635   36.5215   25.7073 H           1 L04       0.0315
     63 H11        36.1327   34.5979   24.1283 H           1 L04       0.0430
     64 H12        34.5071   33.9606   24.3351 H           1 L04       0.0430
     65 H13        37.3942   35.2004   26.4166 H           1 L04       0.0559
     66 H14        38.2347   34.0911   28.3597 H           1 L04       0.0604
     67 H15        35.2587   31.1227   27.9507 H           1 L04       0.0604
     68 H16        34.3991   32.2506   26.0213 H           1 L04       0.0559
     69 H17        38.3693   28.8602   30.6472 H           1 L04       0.0604
     70 H18        33.0519   37.1303   22.2091 H           1 L04       0.0313
     71 H19        32.9950   35.5103   22.8931 H           1 L04       0.0313
     72 H20        37.5017   37.6271   21.3383 H           1 L04       0.0805
     73 H21        38.3955   39.5476   23.5164 H           1 L04       0.0315
     74 H22        37.3827   39.9080   22.1209 H           1 L04       0.0315
     75 H23        40.3737   39.2755   22.1400 H           1 L04       0.0298
     76 H24        39.7258   41.6105   22.7595 H           1 L04       0.0232
     77 H25        38.8728   41.7852   21.2135 H           1 L04       0.0232
     78 H26        40.6306   41.5622   21.2443 H           1 L04       0.0232
     79 H27        29.2272   38.2401   24.2458 H           1 L04       0.0267
     80 H28        28.3652   37.5911   22.8683 H           1 L04       0.0267
     81 H29        30.3335   39.9161   22.6586 H           1 L04       0.0285
     82 H30        28.6097   40.1215   22.8819 H           1 L04       0.0285
     83 H31        28.0394   39.4716   20.7411 H           1 L04       0.0523
     84 H32        29.3956   38.3943   20.5208 H           1 L04       0.0523
     85 H33        28.5788   42.0027   19.7873 H           1 L04       0.0699
     86 H34        28.5343   40.7384   18.5132 H           1 L04       0.0699
     87 H35        40.0551   34.6820   19.8578 H           1 L04       0.0502
     88 H36        41.8115   33.0458   19.6900 H           1 L04       0.0577
     89 H37        43.1648   32.4986   21.6313 H           1 L04       0.0487
     90 H38        42.7541   33.6181   23.7461 H           1 L04       0.0577
     91 H39        41.0025   35.2404   23.9410 H           1 L04       0.0502
     92 H40        33.6077   41.3611   18.9379 H           1 L04       0.0651
     93 H41        29.4641   43.2404   17.1630 H           1 L04       0.0569
     94 H42        31.6212   43.9920   16.3052 H           1 L04       0.0635
     95 H43        33.6819   43.0542   17.1890 H           1 L04       0.0572
     96 H44        38.1760   32.5111   32.7266 H           1 L04       0.0604
     97 H45        37.3093   33.5937   30.7599 H           1 L04       0.0606
     98 H46        36.6500   38.0187   24.1022 H           1 L04       0.1883
     99 H47        38.9085   36.1119   20.9971 H           1 L04       0.2257
@<TRIPOS>BOND
     1     1    23   1
     2     1     2   1
     3     2    18   1
     4     2     3   1
     5     3    49  ar
     6     3    48  ar
     7    18     7   1
     8     7    16   1
     9     7     8   1
    10     8     9   1
    11     9    10   1
    12    10    15  ar
    13    10    11  ar
    14    11    12  ar
    15    12    13  ar
    16    13    14  ar
    17    13     5   1
    18     5    43  ar
    19     5     6  ar
    20     6    17  ar
    21    17    41  ar
    22    41    42  ar
    23    42    43  ar
    24    14    15  ar
    25    16    50   2
    26    16    45  am
    27    45    19   1
    28    19    27   1
    29    19    20   1
    30    20    21   1
    31    21     4   1
    32    21    22   1
    33    27    51   2
    34    27    46  am
    35    46    30   1
    36    30    35  ar
    37    30    31  ar
    38    31    32  ar
    39    32    33  ar
    40    33    34  ar
    41    34    35  ar
    42    23    24   1
    43    24    25   1
    44    25    44   1
    45    44    28   1
    46    44    26  am
    47    26    47   2
    48    26    29   1
    49    29    37  ar
    50    29    36  ar
    51    36    28   1
    52    36    38  ar
    53    38    39  ar
    54    39    40  ar
    55    40    37  ar
    56    41    52   1
    57     1    53   1
    58     1    54   1
    59     2    55   1
    60     4    56   1
    61     4    57   1
    62     4    58   1
    63     6    59   1
    64     7    60   1
    65     8    61   1
    66     8    62   1
    67     9    63   1
    68     9    64   1
    69    11    65   1
    70    12    66   1
    71    14    67   1
    72    15    68   1
    73    17    69   1
    74    18    70   1
    75    18    71   1
    76    19    72   1
    77    20    73   1
    78    20    74   1
    79    21    75   1
    80    22    76   1
    81    22    77   1
    82    22    78   1
    83    23    79   1
    84    23    80   1
    85    24    81   1
    86    24    82   1
    87    25    83   1
    88    25    84   1
    89    28    85   1
    90    28    86   1
    91    31    87   1
    92    32    88   1
    93    33    89   1
    94    34    90   1
    95    35    91   1
    96    37    92   1
    97    38    93   1
    98    39    94   1
    99    40    95   1
   100    42    96   1
   101    43    97   1
   102    45    98   1
   103    46    99   1
@<TRIPOS>SUBSTRUCTURE
     1  L04      1

