@<TRIPOS>MOLECULE
1hfs_ligand_079
    99   103
SMALL
GAST_HUCK
****
This file was generated by PARSER (from files_GN.cpp)

@<TRIPOS>ATOM
      1 C1         30.2365   38.3356   18.0371 C.3         1 L04      -0.0384
      2 C2         29.6337   38.7932   19.4191 C.3         1 L04       0.0141
      3 C3         28.8820   40.0684   19.2975 C.2         1 L04       0.0380
      4 C4         25.3165   36.7668   21.6602 C.3         1 L04      -0.0625
      5 C5         35.3695   34.4990   26.7409 C.ar        1 L04      -0.0257
      6 C6         35.0328   33.1467   27.0130 C.ar        1 L04      -0.0571
      7 C7         30.2649   38.5337   22.0085 C.3         1 L04       0.0523
      8 C8         31.3918   38.5074   23.1005 C.3         1 L04      -0.0232
      9 C9         32.6785   37.6997   22.7237 C.3         1 L04      -0.0166
     10 C10        33.2824   36.8519   23.7966 C.ar        1 L04      -0.0424
     11 C11        33.8076   35.5714   23.4871 C.ar        1 L04      -0.0596
     12 C12        34.4762   34.8105   24.4568 C.ar        1 L04      -0.0610
     13 C13        34.6378   35.2734   25.7866 C.ar        1 L04      -0.0267
     14 C14        34.0930   36.5500   26.0948 C.ar        1 L04      -0.0610
     15 C15        33.4352   37.3262   25.1213 C.ar        1 L04      -0.0596
     16 C16        29.1739   39.4262   22.4167 C.2         1 L04       0.1816
     17 C17        35.7946   32.3637   27.9029 C.ar        1 L04      -0.0282
     18 C18        30.7504   38.8373   20.5405 C.3         1 L04      -0.0186
     19 C19        26.6994   39.6431   22.6490 C.3         1 L04       0.1369
     20 C20        25.7886   39.3186   21.4068 C.3         1 L04      -0.0096
     21 C21        25.8932   37.8943   20.7603 C.3         1 L04      -0.0425
     22 C22        25.2361   37.8744   19.3549 C.3         1 L04      -0.0625
     23 C23        29.3370   38.4134   16.7554 C.3         1 L04      -0.0495
     24 C24        29.3508   39.7602   15.9727 C.3         1 L04      -0.0323
     25 C25        30.7232   40.2120   15.3844 C.3         1 L04       0.0356
     26 C26        29.9328   40.4694   13.0733 C.2         1 L04       0.2046
     27 C27        26.1407   39.3947   23.9788 C.2         1 L04       0.2292
     28 C28        31.9856   39.4820   13.3094 C.3         1 L04       0.0703
     29 C29        30.3561   40.2033   11.8074 C.ar        1 L04       0.0535
     30 C30        26.5087   39.8307   26.3396 C.ar        1 L04       0.0663
     31 C31        26.5690   41.0366   27.0756 C.ar        1 L04      -0.0413
     32 C32        26.3556   41.0487   28.4627 C.ar        1 L04      -0.0755
     33 C33        26.1018   39.8433   29.1491 C.ar        1 L04      -0.0772
     34 C34        26.0457   38.6321   28.4291 C.ar        1 L04      -0.0755
     35 C35        26.2383   38.6263   27.0395 C.ar        1 L04      -0.0413
     36 C36        31.6054   39.5920   11.9087 C.ar        1 L04      -0.0003
     37 C37        29.7548   40.4217   10.5509 C.ar        1 L04      -0.0484
     38 C38        32.2931   39.1651   10.7594 C.ar        1 L04      -0.0524
     39 C39        31.6990   39.3611    9.4977 C.ar        1 L04      -0.0641
     40 C40        30.4377   39.9894    9.3902 C.ar        1 L04      -0.0630
     41 C41        36.9094   32.9219   28.5521 C.ar        1 L04       0.1322
     42 C42        37.2558   34.2618   28.3093 C.ar        1 L04      -0.0282
     43 C43        36.4972   35.0380   27.4127 C.ar        1 L04      -0.0571
     44 N1         30.8373   40.0612   13.9566 N.am        1 L04      -0.2613
     45 N18        27.9410   38.9318   22.5330 N.am        1 L04      -0.2649
     46 N29        26.8072   39.8850   25.0166 N.am        1 L04      -0.2320
     47 O1         28.8419   40.9631   13.3431 O.2         1 L04      -0.3882
     48 O4         27.7044   40.0936   18.6141 O.co2       1 L04      -0.5687
     49 O5         29.3339   41.2220   19.8524 O.co2       1 L04      -0.5687
     50 O17        29.3906   40.6234   22.5713 O.2         1 L04      -0.3966
     51 O28        25.0237   38.9136   24.1247 O.2         1 L04      -0.3823
     52 F1         37.6188   32.1965   29.3697 F           1 L04      -0.1835
     53 H1         31.1940   38.8589   17.8638 H           1 L04       0.0286
     54 H2         30.4722   37.2629   18.1508 H           1 L04       0.0286
     55 H3         28.9060   38.0172   19.7088 H           1 L04       0.0467
     56 H4         25.3906   35.7980   21.1500 H           1 L04       0.0232
     57 H5         24.2614   36.9645   21.8946 H           1 L04       0.0232
     58 H6         25.8900   36.7063   22.5908 H           1 L04       0.0232
     59 H7         34.2167   32.7156   26.5700 H           1 L04       0.0606
     60 H8         29.8797   37.5025   21.9799 H           1 L04       0.0541
     61 H9         30.9610   38.0647   24.0053 H           1 L04       0.0315
     62 H10        31.6874   39.5343   23.3451 H           1 L04       0.0315
     63 H11        33.4468   38.4135   22.3993 H           1 L04       0.0430
     64 H12        32.4463   37.0712   21.8541 H           1 L04       0.0430
     65 H13        33.7378   35.2003   22.5343 H           1 L04       0.0559
     66 H14        34.8720   33.9129   24.1663 H           1 L04       0.0604
     67 H15        34.1745   36.9328   27.0368 H           1 L04       0.0604
     68 H16        33.0779   38.2532   25.3746 H           1 L04       0.0559
     69 H17        35.5341   31.3896   28.0716 H           1 L04       0.0604
     70 H18        31.2963   39.7960   20.5261 H           1 L04       0.0313
     71 H19        31.4953   38.0693   20.2966 H           1 L04       0.0313
     72 H20        26.8736   40.7265   22.6046 H           1 L04       0.0805
     73 H21        26.0647   40.0420   20.6316 H           1 L04       0.0315
     74 H22        24.7460   39.5297   21.6591 H           1 L04       0.0315
     75 H23        26.9569   37.6783   20.5925 H           1 L04       0.0298
     76 H24        25.7867   38.5348   18.6793 H           1 L04       0.0232
     77 H25        24.1979   38.2154   19.4101 H           1 L04       0.0232
     78 H26        25.2584   36.8611   18.9384 H           1 L04       0.0232
     79 H27        28.2996   38.2004   17.0443 H           1 L04       0.0267
     80 H28        29.6467   37.6203   16.0597 H           1 L04       0.0267
     81 H29        28.9925   40.5515   16.6336 H           1 L04       0.0285
     82 H30        28.6209   39.6745   15.1584 H           1 L04       0.0285
     83 H31        31.5363   39.6660   15.8760 H           1 L04       0.0523
     84 H32        30.8832   41.2717   15.6164 H           1 L04       0.0523
     85 H33        32.1223   38.4380   13.5988 H           1 L04       0.0699
     86 H34        32.8946   40.0533   13.5130 H           1 L04       0.0699
     87 H35        26.7681   41.9207   26.5940 H           1 L04       0.0502
     88 H36        26.3948   41.9306   28.9797 H           1 L04       0.0577
     89 H37        25.9592   39.8501   30.1592 H           1 L04       0.0487
     90 H38        25.8685   37.7538   28.9289 H           1 L04       0.0577
     91 H39        26.2265   37.7315   26.5413 H           1 L04       0.0502
     92 H40        28.8430   40.8779   10.4774 H           1 L04       0.0651
     93 H41        33.2036   38.7124   10.8470 H           1 L04       0.0569
     94 H42        32.1864   39.0450    8.6547 H           1 L04       0.0635
     95 H43        30.0200   40.1293    8.4754 H           1 L04       0.0572
     96 H44        38.0685   34.6716   28.7723 H           1 L04       0.0604
     97 H45        36.8028   35.9959   27.2343 H           1 L04       0.0606
     98 H46        27.8581   37.9691   22.4433 H           1 L04       0.1883
     99 H47        27.5778   40.4318   24.8004 H           1 L04       0.2257
@<TRIPOS>BOND
     1     1    23   1
     2     1     2   1
     3     2    18   1
     4     2     3   1
     5     3    49  ar
     6     3    48  ar
     7    18     7   1
     8     7    16   1
     9     7     8   1
    10     8     9   1
    11     9    10   1
    12    10    15  ar
    13    10    11  ar
    14    11    12  ar
    15    12    13  ar
    16    13    14  ar
    17    13     5   1
    18     5    43  ar
    19     5     6  ar
    20     6    17  ar
    21    17    41  ar
    22    41    42  ar
    23    42    43  ar
    24    14    15  ar
    25    16    50   2
    26    16    45  am
    27    45    19   1
    28    19    27   1
    29    19    20   1
    30    20    21   1
    31    21     4   1
    32    21    22   1
    33    27    51   2
    34    27    46  am
    35    46    30   1
    36    30    35  ar
    37    30    31  ar
    38    31    32  ar
    39    32    33  ar
    40    33    34  ar
    41    34    35  ar
    42    23    24   1
    43    24    25   1
    44    25    44   1
    45    44    28   1
    46    44    26  am
    47    26    47   2
    48    26    29   1
    49    29    37  ar
    50    29    36  ar
    51    36    28   1
    52    36    38  ar
    53    38    39  ar
    54    39    40  ar
    55    40    37  ar
    56    41    52   1
    57     1    53   1
    58     1    54   1
    59     2    55   1
    60     4    56   1
    61     4    57   1
    62     4    58   1
    63     6    59   1
    64     7    60   1
    65     8    61   1
    66     8    62   1
    67     9    63   1
    68     9    64   1
    69    11    65   1
    70    12    66   1
    71    14    67   1
    72    15    68   1
    73    17    69   1
    74    18    70   1
    75    18    71   1
    76    19    72   1
    77    20    73   1
    78    20    74   1
    79    21    75   1
    80    22    76   1
    81    22    77   1
    82    22    78   1
    83    23    79   1
    84    23    80   1
    85    24    81   1
    86    24    82   1
    87    25    83   1
    88    25    84   1
    89    28    85   1
    90    28    86   1
    91    31    87   1
    92    32    88   1
    93    33    89   1
    94    34    90   1
    95    35    91   1
    96    37    92   1
    97    38    93   1
    98    39    94   1
    99    40    95   1
   100    42    96   1
   101    43    97   1
   102    45    98   1
   103    46    99   1
@<TRIPOS>SUBSTRUCTURE
     1  L04      1

