@<TRIPOS>MOLECULE
1hfs_ligand_017
    99   103
SMALL
GAST_HUCK
****
This file was generated by PARSER (from files_GN.cpp)

@<TRIPOS>ATOM
      1 C1         33.3132   37.4124   23.3225 C.3         1 L04      -0.0384
      2 C2         32.8988   36.1170   24.1039 C.3         1 L04       0.0141
      3 C3         32.5434   36.4343   25.5152 C.2         1 L04       0.0380
      4 C4         41.6740   35.9955   23.6173 C.3         1 L04      -0.0625
      5 C5         38.7957   30.9642   30.4818 C.ar        1 L04      -0.0257
      6 C6         39.9386   30.2444   30.0663 C.ar        1 L04      -0.0571
      7 C7         35.3624   35.1661   24.6180 C.3         1 L04       0.0523
      8 C8         35.9557   33.9278   25.3760 C.3         1 L04      -0.0232
      9 C9         35.3321   33.6743   26.7846 C.3         1 L04      -0.0166
     10 C10        36.2508   32.9478   27.7053 C.ar        1 L04      -0.0424
     11 C11        35.9579   31.6378   28.1492 C.ar        1 L04      -0.0596
     12 C12        36.8134   30.9777   29.0521 C.ar        1 L04      -0.0610
     13 C13        37.9735   31.6157   29.5346 C.ar        1 L04      -0.0267
     14 C14        38.2836   32.9171   29.0875 C.ar        1 L04      -0.0610
     15 C15        37.4301   33.5724   28.1788 C.ar        1 L04      -0.0596
     16 C16        36.3465   35.6667   23.6488 C.2         1 L04       0.1816
     17 C17        40.7349   29.5737   31.0128 C.ar        1 L04      -0.0282
     18 C18        33.9165   34.9261   24.0352 C.3         1 L04      -0.0186
     19 C19        38.4444   36.9764   23.3581 C.3         1 L04       0.1369
     20 C20        39.2729   35.8441   22.6526 C.3         1 L04      -0.0096
     21 C21        40.7728   36.1980   22.3618 C.3         1 L04      -0.0425
     22 C22        41.3311   35.3741   21.1698 C.3         1 L04      -0.0625
     23 C23        32.8497   37.4845   21.8392 C.3         1 L04      -0.0495
     24 C24        31.3283   37.7746   21.6242 C.3         1 L04      -0.0323
     25 C25        30.9134   39.2744   21.4776 C.3         1 L04       0.0356
     26 C26        31.6007   40.6168   23.4284 C.2         1 L04       0.2046
     27 C27        37.9560   38.0590   22.5039 C.2         1 L04       0.2292
     28 C28        29.3688   40.1785   23.2746 C.3         1 L04       0.0703
     29 C29        31.0462   41.2028   24.5200 C.ar        1 L04       0.0535
     30 C30        36.3573   39.9063   22.3697 C.ar        1 L04       0.0663
     31 C31        35.8739   40.9578   23.1834 C.ar        1 L04      -0.0413
     32 C32        35.1012   41.9991   22.6386 C.ar        1 L04      -0.0755
     33 C33        34.7759   41.9879   21.2714 C.ar        1 L04      -0.0772
     34 C34        35.2464   40.9553   20.4449 C.ar        1 L04      -0.0755
     35 C35        36.0231   39.9175   20.9889 C.ar        1 L04      -0.0413
     36 C36        29.6761   40.9706   24.4676 C.ar        1 L04      -0.0003
     37 C37        31.6211   41.9310   25.5800 C.ar        1 L04      -0.0484
     38 C38        28.8253   41.4759   25.4658 C.ar        1 L04      -0.0524
     39 C39        29.3852   42.2150   26.5328 C.ar        1 L04      -0.0641
     40 C40        30.7791   42.4344   26.5897 C.ar        1 L04      -0.0630
     41 C41        40.3900   29.6080   32.3778 C.ar        1 L04       0.1322
     42 C42        39.2507   30.3214   32.7964 C.ar        1 L04      -0.0282
     43 C43        38.4581   31.0005   31.8529 C.ar        1 L04      -0.0571
     44 N1         30.6796   39.9826   22.7165 N.am        1 L04      -0.2613
     45 N18        37.3578   36.4046   24.1038 N.am        1 L04      -0.2649
     46 N29        37.0575   38.9096   22.9953 N.am        1 L04      -0.2320
     47 O1         32.8003   40.6735   23.1712 O.2         1 L04      -0.3882
     48 O4         33.4243   37.0168   26.3555 O.co2       1 L04      -0.5687
     49 O5         31.2504   36.4621   25.9006 O.co2       1 L04      -0.5687
     50 O17        36.2631   35.3865   22.4586 O.2         1 L04      -0.3966
     51 O28        38.4124   38.2047   21.3712 O.2         1 L04      -0.3823
     52 F1         41.1249   28.9803   33.2535 F           1 L04      -0.1835
     53 H1         32.8985   38.2772   23.8356 H           1 L04       0.0286
     54 H2         34.3970   37.5421   23.3602 H           1 L04       0.0286
     55 H3         31.9768   35.7428   23.6399 H           1 L04       0.0467
     56 H4         42.7077   36.2619   23.3913 H           1 L04       0.0232
     57 H5         41.6471   34.9544   23.9458 H           1 L04       0.0232
     58 H6         41.3382   36.6270   24.4423 H           1 L04       0.0232
     59 H7         40.1977   30.2049   29.0753 H           1 L04       0.0606
     60 H8         35.2694   35.9535   25.3667 H           1 L04       0.0541
     61 H9         37.0345   34.0736   25.5101 H           1 L04       0.0315
     62 H10        35.8281   33.0315   24.7613 H           1 L04       0.0315
     63 H11        34.3989   33.1204   26.6603 H           1 L04       0.0430
     64 H12        35.0692   34.6219   27.2632 H           1 L04       0.0430
     65 H13        35.1179   31.1551   27.8230 H           1 L04       0.0559
     66 H14        36.5743   30.0328   29.3661 H           1 L04       0.0604
     67 H15        39.1224   33.3984   29.4267 H           1 L04       0.0604
     68 H16        37.6702   34.5217   27.8790 H           1 L04       0.0559
     69 H17        41.5645   29.0600   30.7058 H           1 L04       0.0604
     70 H18        33.9728   34.5840   22.9959 H           1 L04       0.0313
     71 H19        33.4507   34.0951   24.5752 H           1 L04       0.0313
     72 H20        39.0861   37.4440   24.1043 H           1 L04       0.0805
     73 H21        38.7697   35.5772   21.7194 H           1 L04       0.0315
     74 H22        39.2559   34.9377   23.2688 H           1 L04       0.0315
     75 H23        40.8396   37.2531   22.0772 H           1 L04       0.0298
     76 H24        40.7677   35.5975   20.2598 H           1 L04       0.0232
     77 H25        41.2550   34.3036   21.3745 H           1 L04       0.0232
     78 H26        42.3782   35.6222   20.9857 H           1 L04       0.0232
     79 H27        33.1063   36.5368   21.3570 H           1 L04       0.0267
     80 H28        33.4303   38.2564   21.3233 H           1 L04       0.0267
     81 H29        30.7357   37.3049   22.4144 H           1 L04       0.0285
     82 H30        31.0507   37.2815   20.6886 H           1 L04       0.0285
     83 H31        29.9902   39.3058   20.8930 H           1 L04       0.0523
     84 H32        31.6607   39.8038   20.8784 H           1 L04       0.0523
     85 H33        28.9058   39.2265   23.5452 H           1 L04       0.0699
     86 H34        28.7237   40.7449   22.5955 H           1 L04       0.0699
     87 H35        36.0741   40.9674   24.1871 H           1 L04       0.0502
     88 H36        34.7525   42.7509   23.2388 H           1 L04       0.0577
     89 H37        34.1789   42.7184   20.8815 H           1 L04       0.0487
     90 H38        35.0162   40.9590   19.4486 H           1 L04       0.0577
     91 H39        36.3125   39.1597   20.3701 H           1 L04       0.0502
     92 H40        32.6316   42.0908   25.6183 H           1 L04       0.0651
     93 H41        27.8175   41.3093   25.4248 H           1 L04       0.0569
     94 H42        28.7795   42.5862   27.2685 H           1 L04       0.0635
     95 H43        31.1797   42.9634   27.3692 H           1 L04       0.0572
     96 H44        38.9943   30.3472   33.7862 H           1 L04       0.0604
     97 H45        37.6299   31.5132   32.1728 H           1 L04       0.0606
     98 H46        37.3524   36.6085   25.0593 H           1 L04       0.1883
     99 H47        36.8785   38.8174   23.9443 H           1 L04       0.2257
@<TRIPOS>BOND
     1     1    23   1
     2     1     2   1
     3     2    18   1
     4     2     3   1
     5     3    49  ar
     6     3    48  ar
     7    18     7   1
     8     7    16   1
     9     7     8   1
    10     8     9   1
    11     9    10   1
    12    10    15  ar
    13    10    11  ar
    14    11    12  ar
    15    12    13  ar
    16    13    14  ar
    17    13     5   1
    18     5    43  ar
    19     5     6  ar
    20     6    17  ar
    21    17    41  ar
    22    41    42  ar
    23    42    43  ar
    24    14    15  ar
    25    16    50   2
    26    16    45  am
    27    45    19   1
    28    19    27   1
    29    19    20   1
    30    20    21   1
    31    21     4   1
    32    21    22   1
    33    27    51   2
    34    27    46  am
    35    46    30   1
    36    30    35  ar
    37    30    31  ar
    38    31    32  ar
    39    32    33  ar
    40    33    34  ar
    41    34    35  ar
    42    23    24   1
    43    24    25   1
    44    25    44   1
    45    44    28   1
    46    44    26  am
    47    26    47   2
    48    26    29   1
    49    29    37  ar
    50    29    36  ar
    51    36    28   1
    52    36    38  ar
    53    38    39  ar
    54    39    40  ar
    55    40    37  ar
    56    41    52   1
    57     1    53   1
    58     1    54   1
    59     2    55   1
    60     4    56   1
    61     4    57   1
    62     4    58   1
    63     6    59   1
    64     7    60   1
    65     8    61   1
    66     8    62   1
    67     9    63   1
    68     9    64   1
    69    11    65   1
    70    12    66   1
    71    14    67   1
    72    15    68   1
    73    17    69   1
    74    18    70   1
    75    18    71   1
    76    19    72   1
    77    20    73   1
    78    20    74   1
    79    21    75   1
    80    22    76   1
    81    22    77   1
    82    22    78   1
    83    23    79   1
    84    23    80   1
    85    24    81   1
    86    24    82   1
    87    25    83   1
    88    25    84   1
    89    28    85   1
    90    28    86   1
    91    31    87   1
    92    32    88   1
    93    33    89   1
    94    34    90   1
    95    35    91   1
    96    37    92   1
    97    38    93   1
    98    39    94   1
    99    40    95   1
   100    42    96   1
   101    43    97   1
   102    45    98   1
   103    46    99   1
@<TRIPOS>SUBSTRUCTURE
     1  L04      1

