@<TRIPOS>MOLECULE
1hfs_ligand_093
    99   103
SMALL
GAST_HUCK
****
This file was generated by PARSER (from files_GN.cpp)

@<TRIPOS>ATOM
      1 C1         33.7700   39.0345   21.8684 C.3         1 L04      -0.0384
      2 C2         34.4647   38.6989   23.2301 C.3         1 L04       0.0141
      3 C3         34.4502   39.8633   24.1546 C.2         1 L04       0.0380
      4 C4         36.5844   32.9089   27.2553 C.3         1 L04      -0.0625
      5 C5         43.9602   34.6735   23.4810 C.ar        1 L04      -0.0257
      6 C6         44.0874   33.4283   24.1388 C.ar        1 L04      -0.0571
      7 C7         36.1759   36.7406   22.5408 C.3         1 L04       0.0523
      8 C8         37.5889   36.1432   22.8467 C.3         1 L04      -0.0232
      9 C9         38.8034   37.1282   22.8009 C.3         1 L04      -0.0166
     10 C10        40.1348   36.4803   22.9741 C.ar        1 L04      -0.0424
     11 C11        41.1419   37.1104   23.7492 C.ar        1 L04      -0.0596
     12 C12        42.4101   36.5203   23.9138 C.ar        1 L04      -0.0610
     13 C13        42.6958   35.2735   23.3124 C.ar        1 L04      -0.0267
     14 C14        41.6980   34.6400   22.5297 C.ar        1 L04      -0.0610
     15 C15        40.4478   35.2510   22.3441 C.ar        1 L04      -0.0596
     16 C16        35.1736   35.7979   23.0441 C.2         1 L04       0.1816
     17 C17        45.3471   32.8266   24.3047 C.ar        1 L04      -0.0282
     18 C18        35.9405   38.1985   23.0617 C.3         1 L04      -0.0186
     19 C19        33.9506   34.9548   25.0301 C.3         1 L04       0.1369
     20 C20        34.5692   34.0525   26.1518 C.3         1 L04      -0.0096
     21 C21        36.0572   33.6042   25.9706 C.3         1 L04      -0.0425
     22 C22        36.2635   32.6669   24.7475 C.3         1 L04      -0.0625
     23 C23        32.3941   39.7561   22.0168 C.3         1 L04      -0.0495
     24 C24        31.5798   39.8198   20.6901 C.3         1 L04      -0.0323
     25 C25        30.7671   38.5243   20.3581 C.3         1 L04       0.0356
     26 C26        28.3496   38.8222   20.0182 C.2         1 L04       0.2046
     27 C27        32.9741   35.8929   25.5786 C.2         1 L04       0.2292
     28 C28        29.0120   38.4877   22.1874 C.3         1 L04       0.0703
     29 C29        27.2149   38.8806   20.7558 C.ar        1 L04       0.0535
     30 C30        30.6719   36.7069   25.4999 C.ar        1 L04       0.0663
     31 C31        30.8662   38.0568   25.8884 C.ar        1 L04      -0.0413
     32 C32        29.7696   38.8915   26.1786 C.ar        1 L04      -0.0755
     33 C33        28.4562   38.3956   26.0586 C.ar        1 L04      -0.0772
     34 C34        28.2487   37.0752   25.6200 C.ar        1 L04      -0.0755
     35 C35        29.3481   36.2477   25.3160 C.ar        1 L04      -0.0413
     36 C36        27.5637   38.6619   22.0858 C.ar        1 L04      -0.0003
     37 C37        25.8747   39.1095   20.3875 C.ar        1 L04      -0.0484
     38 C38        26.5794   38.6587   23.0952 C.ar        1 L04      -0.0524
     39 C39        25.2329   38.8857   22.7422 C.ar        1 L04      -0.0641
     40 C40        24.8821   39.1175   21.3941 C.ar        1 L04      -0.0630
     41 C41        46.5048   33.4557   23.7944 C.ar        1 L04       0.1322
     42 C42        46.3858   34.6899   23.1225 C.ar        1 L04      -0.0282
     43 C43        45.1277   35.3004   22.9718 C.ar        1 L04      -0.0571
     44 N1         29.3978   38.6019   20.8073 N.am        1 L04      -0.2613
     45 N18        34.9554   35.7253   24.3579 N.am        1 L04      -0.2649
     46 N29        31.6923   35.8294   25.2274 N.am        1 L04      -0.2320
     47 O1         28.3783   38.9788   18.8017 O.2         1 L04      -0.3882
     48 O4         35.0053   41.0481   23.8004 O.co2       1 L04      -0.5687
     49 O5         33.8623   39.7518   25.3733 O.co2       1 L04      -0.5687
     50 O17        34.6006   35.0529   22.2528 O.2         1 L04      -0.3966
     51 O28        33.3738   36.7753   26.3316 O.2         1 L04      -0.3823
     52 F1         47.6734   32.8986   23.9374 F           1 L04      -0.1835
     53 H1         34.4289   39.6683   21.2656 H           1 L04       0.0286
     54 H2         33.6060   38.1031   21.3220 H           1 L04       0.0286
     55 H3         33.8791   37.8962   23.6921 H           1 L04       0.0467
     56 H4         37.6448   32.6645   27.1499 H           1 L04       0.0232
     57 H5         36.0344   31.9809   27.4556 H           1 L04       0.0232
     58 H6         36.4785   33.5686   28.1185 H           1 L04       0.0232
     59 H7         43.2656   32.9533   24.5165 H           1 L04       0.0606
     60 H8         36.0871   36.7837   21.4536 H           1 L04       0.0541
     61 H9         37.7719   35.3425   22.1136 H           1 L04       0.0315
     62 H10        37.5998   35.6718   23.8421 H           1 L04       0.0315
     63 H11        38.6515   37.8591   23.6120 H           1 L04       0.0430
     64 H12        38.7960   37.6770   21.8475 H           1 L04       0.0430
     65 H13        40.9598   38.0123   24.2004 H           1 L04       0.0559
     66 H14        43.1122   37.0043   24.4744 H           1 L04       0.0604
     67 H15        41.8924   33.7431   22.0819 H           1 L04       0.0604
     68 H16        39.7657   34.7886   21.7372 H           1 L04       0.0559
     69 H17        45.4303   31.9271   24.7860 H           1 L04       0.0604
     70 H18        36.4455   38.2957   24.0273 H           1 L04       0.0313
     71 H19        36.4473   38.8775   22.3689 H           1 L04       0.0313
     72 H20        33.4455   34.2916   24.3138 H           1 L04       0.0805
     73 H21        33.9453   33.1534   26.2273 H           1 L04       0.0315
     74 H22        34.5077   34.5797   27.1164 H           1 L04       0.0315
     75 H23        36.6763   34.4967   25.8142 H           1 L04       0.0298
     76 H24        36.0180   33.1772   23.8162 H           1 L04       0.0232
     77 H25        35.6302   31.7801   24.8366 H           1 L04       0.0232
     78 H26        37.3036   32.3433   24.6848 H           1 L04       0.0232
     79 H27        32.5755   40.7837   22.3461 H           1 L04       0.0267
     80 H28        31.7918   39.2646   22.7873 H           1 L04       0.0267
     81 H29        32.2661   40.0303   19.8646 H           1 L04       0.0285
     82 H30        30.8897   40.6709   20.7414 H           1 L04       0.0285
     83 H31        31.2450   37.6414   20.7960 H           1 L04       0.0523
     84 H32        30.7839   38.3689   19.2768 H           1 L04       0.0523
     85 H33        29.4533   39.2767   22.7916 H           1 L04       0.0699
     86 H34        29.2587   37.5086   22.5961 H           1 L04       0.0699
     87 H35        31.8061   38.4575   25.9753 H           1 L04       0.0502
     88 H36        29.9207   39.8594   26.4765 H           1 L04       0.0577
     89 H37        27.6564   39.0000   26.2674 H           1 L04       0.0487
     90 H38        27.2978   36.7096   25.5311 H           1 L04       0.0577
     91 H39        29.1749   35.2845   25.0161 H           1 L04       0.0502
     92 H40        25.6191   39.2820   19.4124 H           1 L04       0.0651
     93 H41        26.8302   38.4927   24.0673 H           1 L04       0.0569
     94 H42        24.5083   38.8921   23.4656 H           1 L04       0.0635
     95 H43        23.8977   39.2850   21.1413 H           1 L04       0.0572
     96 H44        47.2204   35.1513   22.7372 H           1 L04       0.0604
     97 H45        45.0593   36.1957   22.4801 H           1 L04       0.0606
     98 H46        35.4522   36.3517   24.9096 H           1 L04       0.1883
     99 H47        31.4246   34.9994   24.8071 H           1 L04       0.2257
@<TRIPOS>BOND
     1     1    23   1
     2     1     2   1
     3     2    18   1
     4     2     3   1
     5     3    49  ar
     6     3    48  ar
     7    18     7   1
     8     7    16   1
     9     7     8   1
    10     8     9   1
    11     9    10   1
    12    10    15  ar
    13    10    11  ar
    14    11    12  ar
    15    12    13  ar
    16    13    14  ar
    17    13     5   1
    18     5    43  ar
    19     5     6  ar
    20     6    17  ar
    21    17    41  ar
    22    41    42  ar
    23    42    43  ar
    24    14    15  ar
    25    16    50   2
    26    16    45  am
    27    45    19   1
    28    19    27   1
    29    19    20   1
    30    20    21   1
    31    21     4   1
    32    21    22   1
    33    27    51   2
    34    27    46  am
    35    46    30   1
    36    30    35  ar
    37    30    31  ar
    38    31    32  ar
    39    32    33  ar
    40    33    34  ar
    41    34    35  ar
    42    23    24   1
    43    24    25   1
    44    25    44   1
    45    44    28   1
    46    44    26  am
    47    26    47   2
    48    26    29   1
    49    29    37  ar
    50    29    36  ar
    51    36    28   1
    52    36    38  ar
    53    38    39  ar
    54    39    40  ar
    55    40    37  ar
    56    41    52   1
    57     1    53   1
    58     1    54   1
    59     2    55   1
    60     4    56   1
    61     4    57   1
    62     4    58   1
    63     6    59   1
    64     7    60   1
    65     8    61   1
    66     8    62   1
    67     9    63   1
    68     9    64   1
    69    11    65   1
    70    12    66   1
    71    14    67   1
    72    15    68   1
    73    17    69   1
    74    18    70   1
    75    18    71   1
    76    19    72   1
    77    20    73   1
    78    20    74   1
    79    21    75   1
    80    22    76   1
    81    22    77   1
    82    22    78   1
    83    23    79   1
    84    23    80   1
    85    24    81   1
    86    24    82   1
    87    25    83   1
    88    25    84   1
    89    28    85   1
    90    28    86   1
    91    31    87   1
    92    32    88   1
    93    33    89   1
    94    34    90   1
    95    35    91   1
    96    37    92   1
    97    38    93   1
    98    39    94   1
    99    40    95   1
   100    42    96   1
   101    43    97   1
   102    45    98   1
   103    46    99   1
@<TRIPOS>SUBSTRUCTURE
     1  L04      1

