@<TRIPOS>MOLECULE
1hfs_ligand_001
    99   103
SMALL
GAST_HUCK
****
This file was generated by PARSER (from files_GN.cpp)

@<TRIPOS>ATOM
      1 C1         31.1342   35.6788   24.3898 C.3         1 L04      -0.0384
      2 C2         32.6289   35.8238   24.8661 C.3         1 L04       0.0141
      3 C3         33.0586   37.2281   25.0713 C.2         1 L04       0.0380
      4 C4         40.7618   39.2001   22.5887 C.3         1 L04      -0.0625
      5 C5         38.3961   33.5130   31.0287 C.ar        1 L04      -0.0257
      6 C6         38.5214   32.4526   31.9784 C.ar        1 L04      -0.0571
      7 C7         35.1540   35.0329   24.4632 C.3         1 L04       0.0523
      8 C8         35.6900   33.6113   24.8432 C.3         1 L04      -0.0232
      9 C9         35.1099   33.0373   26.1757 C.3         1 L04      -0.0166
     10 C10        35.9660   33.1708   27.3877 C.ar        1 L04      -0.0424
     11 C11        36.6717   34.3535   27.7001 C.ar        1 L04      -0.0596
     12 C12        37.4593   34.4578   28.8645 C.ar        1 L04      -0.0610
     13 C13        37.5711   33.4065   29.8267 C.ar        1 L04      -0.0267
     14 C14        36.8167   32.2404   29.5044 C.ar        1 L04      -0.0610
     15 C15        36.0545   32.1196   28.3220 C.ar        1 L04      -0.0596
     16 C16        36.0694   35.6266   23.4914 C.2         1 L04       0.1816
     17 C17        39.3344   32.5399   33.1261 C.ar        1 L04      -0.0282
     18 C18        33.6516   35.0410   23.9723 C.3         1 L04      -0.0186
     19 C19        38.0043   37.0731   23.0133 C.3         1 L04       0.1369
     20 C20        38.4692   38.4508   23.5917 C.3         1 L04      -0.0096
     21 C21        39.2280   39.4491   22.6512 C.3         1 L04      -0.0425
     22 C22        38.6260   39.5515   21.2230 C.3         1 L04      -0.0625
     23 C23        30.4610   36.8832   23.6595 C.3         1 L04      -0.0495
     24 C24        29.8755   37.9640   24.6170 C.3         1 L04      -0.0323
     25 C25        29.4430   39.2782   23.9138 C.3         1 L04       0.0356
     26 C26        30.7428   39.9569   21.9359 C.2         1 L04       0.2046
     27 C27        39.0858   36.1140   22.7975 C.2         1 L04       0.2292
     28 C28        31.5446   40.6913   23.9514 C.3         1 L04       0.0703
     29 C29        31.8930   40.6200   21.6497 C.ar        1 L04       0.0535
     30 C30        40.2032   34.6999   21.1538 C.ar        1 L04       0.0663
     31 C31        40.5681   34.7880   19.7927 C.ar        1 L04      -0.0413
     32 C32        41.5198   33.9125   19.2385 C.ar        1 L04      -0.0755
     33 C33        42.1065   32.9164   20.0409 C.ar        1 L04      -0.0772
     34 C34        41.7388   32.8002   21.3925 C.ar        1 L04      -0.0755
     35 C35        40.7949   33.6838   21.9469 C.ar        1 L04      -0.0413
     36 C36        32.4246   41.0821   22.8499 C.ar        1 L04      -0.0003
     37 C37        32.5568   40.8531   20.4283 C.ar        1 L04      -0.0484
     38 C38        33.6413   41.7876   22.8763 C.ar        1 L04      -0.0524
     39 C39        34.3147   42.0266   21.6611 C.ar        1 L04      -0.0641
     40 C40        33.7739   41.5638   20.4414 C.ar        1 L04      -0.0630
     41 C41        40.0782   33.7000   33.3764 C.ar        1 L04       0.1322
     42 C42        39.9811   34.7750   32.4830 C.ar        1 L04      -0.0282
     43 C43        39.1548   34.6793   31.3442 C.ar        1 L04      -0.0571
     44 N1         30.5308   39.9506   23.2457 N.am        1 L04      -0.2613
     45 N18        37.0154   36.4855   23.8760 N.am        1 L04      -0.2649
     46 N29        39.2647   35.5872   21.5915 N.am        1 L04      -0.2320
     47 O1         30.0544   39.3991   21.0888 O.2         1 L04      -0.3882
     48 O4         33.7380   37.9003   24.1129 O.co2       1 L04      -0.5687
     49 O5         32.9109   37.8172   26.2783 O.co2       1 L04      -0.5687
     50 O17        36.0018   35.2556   22.3267 O.2         1 L04      -0.3966
     51 O28        39.8126   35.8298   23.7410 O.2         1 L04      -0.3823
     52 F1         40.8401   33.7819   34.4261 F           1 L04      -0.1835
     53 H1         31.0611   34.8208   23.7187 H           1 L04       0.0286
     54 H2         30.5095   35.4259   25.2519 H           1 L04       0.0286
     55 H3         32.6733   35.3424   25.8536 H           1 L04       0.0467
     56 H4         41.2513   40.0108   22.0437 H           1 L04       0.0232
     57 H5         40.9898   38.2611   22.0812 H           1 L04       0.0232
     58 H6         41.1829   39.1685   23.5951 H           1 L04       0.0232
     59 H7         38.0275   31.5707   31.8627 H           1 L04       0.0606
     60 H8         35.2128   35.6283   25.3732 H           1 L04       0.0541
     61 H9         36.7832   33.6218   24.9198 H           1 L04       0.0315
     62 H10        35.4567   32.9215   24.0219 H           1 L04       0.0315
     63 H11        34.8802   31.9833   26.0031 H           1 L04       0.0430
     64 H12        34.1566   33.5121   26.4069 H           1 L04       0.0430
     65 H13        36.6371   35.1549   27.0714 H           1 L04       0.0559
     66 H14        37.9512   35.3428   28.9814 H           1 L04       0.0604
     67 H15        36.7923   31.4332   30.1238 H           1 L04       0.0604
     68 H16        35.5400   31.2475   28.1649 H           1 L04       0.0559
     69 H17        39.3880   31.7506   33.7749 H           1 L04       0.0604
     70 H18        33.5691   35.4444   22.9568 H           1 L04       0.0313
     71 H19        33.2953   34.0065   23.8992 H           1 L04       0.0313
     72 H20        37.5060   37.2988   22.0642 H           1 L04       0.0805
     73 H21        39.0681   38.2809   24.4914 H           1 L04       0.0315
     74 H22        37.5640   38.9737   23.9252 H           1 L04       0.0315
     75 H23        39.1123   40.4357   23.1012 H           1 L04       0.0298
     76 H24        37.5462   39.7162   21.2755 H           1 L04       0.0232
     77 H25        38.8145   38.6403   20.6486 H           1 L04       0.0232
     78 H26        39.0683   40.3923   20.6803 H           1 L04       0.0232
     79 H27        29.6288   36.5055   23.0498 H           1 L04       0.0267
     80 H28        31.1809   37.3198   22.9688 H           1 L04       0.0267
     81 H29        30.5957   38.2107   25.3965 H           1 L04       0.0285
     82 H30        29.0024   37.5414   25.1208 H           1 L04       0.0285
     83 H31        29.0172   39.9536   24.6600 H           1 L04       0.0523
     84 H32        28.6355   39.0418   23.2137 H           1 L04       0.0523
     85 H33        32.0819   40.0727   24.6710 H           1 L04       0.0699
     86 H34        31.1279   41.5708   24.4473 H           1 L04       0.0699
     87 H35        40.1549   35.5081   19.1928 H           1 L04       0.0502
     88 H36        41.7808   33.9976   18.2548 H           1 L04       0.0577
     89 H37        42.7904   32.2738   19.6388 H           1 L04       0.0487
     90 H38        42.1534   32.0657   21.9728 H           1 L04       0.0577
     91 H39        40.5248   33.5570   22.9228 H           1 L04       0.0502
     92 H40        32.1667   40.5079   19.5486 H           1 L04       0.0651
     93 H41        34.0338   42.1159   23.7616 H           1 L04       0.0569
     94 H42        35.2036   42.5322   21.6644 H           1 L04       0.0635
     95 H43        34.2694   41.7411   19.5641 H           1 L04       0.0572
     96 H44        40.5083   35.6333   32.6620 H           1 L04       0.0604
     97 H45        39.1352   35.5077   30.7543 H           1 L04       0.0606
     98 H46        37.0376   36.7429   24.8142 H           1 L04       0.1883
     99 H47        38.6761   35.9273   20.8990 H           1 L04       0.2257
@<TRIPOS>BOND
     1     1    23   1
     2     1     2   1
     3     2    18   1
     4     2     3   1
     5     3    49  ar
     6     3    48  ar
     7    18     7   1
     8     7    16   1
     9     7     8   1
    10     8     9   1
    11     9    10   1
    12    10    15  ar
    13    10    11  ar
    14    11    12  ar
    15    12    13  ar
    16    13    14  ar
    17    13     5   1
    18     5    43  ar
    19     5     6  ar
    20     6    17  ar
    21    17    41  ar
    22    41    42  ar
    23    42    43  ar
    24    14    15  ar
    25    16    50   2
    26    16    45  am
    27    45    19   1
    28    19    27   1
    29    19    20   1
    30    20    21   1
    31    21     4   1
    32    21    22   1
    33    27    51   2
    34    27    46  am
    35    46    30   1
    36    30    35  ar
    37    30    31  ar
    38    31    32  ar
    39    32    33  ar
    40    33    34  ar
    41    34    35  ar
    42    23    24   1
    43    24    25   1
    44    25    44   1
    45    44    28   1
    46    44    26  am
    47    26    47   2
    48    26    29   1
    49    29    37  ar
    50    29    36  ar
    51    36    28   1
    52    36    38  ar
    53    38    39  ar
    54    39    40  ar
    55    40    37  ar
    56    41    52   1
    57     1    53   1
    58     1    54   1
    59     2    55   1
    60     4    56   1
    61     4    57   1
    62     4    58   1
    63     6    59   1
    64     7    60   1
    65     8    61   1
    66     8    62   1
    67     9    63   1
    68     9    64   1
    69    11    65   1
    70    12    66   1
    71    14    67   1
    72    15    68   1
    73    17    69   1
    74    18    70   1
    75    18    71   1
    76    19    72   1
    77    20    73   1
    78    20    74   1
    79    21    75   1
    80    22    76   1
    81    22    77   1
    82    22    78   1
    83    23    79   1
    84    23    80   1
    85    24    81   1
    86    24    82   1
    87    25    83   1
    88    25    84   1
    89    28    85   1
    90    28    86   1
    91    31    87   1
    92    32    88   1
    93    33    89   1
    94    34    90   1
    95    35    91   1
    96    37    92   1
    97    38    93   1
    98    39    94   1
    99    40    95   1
   100    42    96   1
   101    43    97   1
   102    45    98   1
   103    46    99   1
@<TRIPOS>SUBSTRUCTURE
     1  L04      1

