@<TRIPOS>MOLECULE
1hfs_ligand_075
    99   103
SMALL
GAST_HUCK
****
This file was generated by PARSER (from files_GN.cpp)

@<TRIPOS>ATOM
      1 C1         31.4448   35.8848   25.2066 C.3         1 L04      -0.0384
      2 C2         30.9731   37.3704   25.0110 C.3         1 L04       0.0141
      3 C3         29.5624   37.4845   25.4387 C.2         1 L04       0.0380
      4 C4         25.2589   36.7927   21.0328 C.3         1 L04      -0.0625
      5 C5         28.0325   43.7427   17.7536 C.ar        1 L04      -0.0257
      6 C6         27.0075   44.5148   18.3557 C.ar        1 L04      -0.0571
      7 C7         30.8621   39.4593   23.3351 C.3         1 L04       0.0523
      8 C8         31.4719   40.0153   21.9999 C.3         1 L04      -0.0232
      9 C9         30.7916   39.5781   20.6616 C.3         1 L04      -0.0166
     10 C10        30.0884   40.6850   19.9476 C.ar        1 L04      -0.0424
     11 C11        30.8092   41.6307   19.1835 C.ar        1 L04      -0.0596
     12 C12        30.1398   42.6406   18.4647 C.ar        1 L04      -0.0610
     13 C13        28.7270   42.7424   18.4976 C.ar        1 L04      -0.0267
     14 C14        28.0118   41.8084   19.2826 C.ar        1 L04      -0.0610
     15 C15        28.6830   40.8025   19.9978 C.ar        1 L04      -0.0596
     16 C16        29.4695   39.9010   23.4916 C.2         1 L04       0.1816
     17 C17        26.2965   45.4791   17.6170 C.ar        1 L04      -0.0282
     18 C18        31.1684   37.9276   23.5556 C.3         1 L04      -0.0186
     19 C19        27.0351   39.3927   23.5230 C.3         1 L04       0.1369
     20 C20        26.1300   38.2519   22.9430 C.3         1 L04      -0.0096
     21 C21        25.9826   38.1220   21.3913 C.3         1 L04      -0.0425
     22 C22        25.2243   39.3200   20.7544 C.3         1 L04      -0.0625
     23 C23        32.9813   35.6415   25.2651 C.3         1 L04      -0.0495
     24 C24        33.6775   35.3265   23.9057 C.3         1 L04      -0.0323
     25 C25        35.1507   35.8269   23.8287 C.3         1 L04       0.0356
     26 C26        35.0182   38.2990   23.9635 C.2         1 L04       0.2046
     27 C27        26.8274   39.6054   24.9668 C.2         1 L04       0.2292
     28 C28        35.5533   37.4069   21.9221 C.3         1 L04       0.0703
     29 C29        35.1222   39.3568   23.1189 C.ar        1 L04       0.0535
     30 C30        25.9510   38.6946   27.0566 C.ar        1 L04       0.0663
     31 C31        26.6811   39.3674   28.0662 C.ar        1 L04      -0.0413
     32 C32        26.2625   39.3046   29.4082 C.ar        1 L04      -0.0755
     33 C33        25.1128   38.5717   29.7557 C.ar        1 L04      -0.0772
     34 C34        24.3862   37.8935   28.7608 C.ar        1 L04      -0.0755
     35 C35        24.8140   37.9422   27.4236 C.ar        1 L04      -0.0413
     36 C36        35.4558   38.8629   21.8614 C.ar        1 L04      -0.0003
     37 C37        34.9163   40.7320   23.3277 C.ar        1 L04      -0.0484
     38 C38        35.6040   39.7261   20.7617 C.ar        1 L04      -0.0524
     39 C39        35.3728   41.1038   20.9536 C.ar        1 L04      -0.0641
     40 C40        35.0382   41.6049   22.2315 C.ar        1 L04      -0.0630
     41 C41        26.5966   45.6870   16.2592 C.ar        1 L04       0.1322
     42 C42        27.6121   44.9327   15.6441 C.ar        1 L04      -0.0282
     43 C43        28.3267   43.9724   16.3863 C.ar        1 L04      -0.0571
     44 N1         35.2522   37.1670   23.3064 N.am        1 L04      -0.2613
     45 N18        28.4268   39.1069   23.2621 N.am        1 L04      -0.2649
     46 N29        26.2910   38.6644   25.7393 N.am        1 L04      -0.2320
     47 O1         34.6912   38.4134   25.1358 O.2         1 L04      -0.3882
     48 O4         29.2127   38.3023   26.4547 O.co2       1 L04      -0.5687
     49 O5         28.6055   36.7318   24.8524 O.co2       1 L04      -0.5687
     50 O17        29.2810   41.0687   23.8100 O.2         1 L04      -0.3966
     51 O28        27.0859   40.7098   25.4277 O.2         1 L04      -0.3823
     52 F1         25.9269   46.5677   15.5697 F           1 L04      -0.1835
     53 H1         31.0548   35.5268   26.1685 H           1 L04       0.0286
     54 H2         31.0028   35.2448   24.4345 H           1 L04       0.0286
     55 H3         31.5728   37.9937   25.6847 H           1 L04       0.0467
     56 H4         25.1561   36.6821   19.9506 H           1 L04       0.0232
     57 H5         24.2661   36.7685   21.4841 H           1 L04       0.0232
     58 H6         25.8250   35.9389   21.4076 H           1 L04       0.0232
     59 H7         26.7689   44.3798   19.3419 H           1 L04       0.0606
     60 H8         31.4287   39.9577   24.1326 H           1 L04       0.0541
     61 H9         32.5154   39.7019   21.9555 H           1 L04       0.0315
     62 H10        31.5009   41.1077   22.0605 H           1 L04       0.0315
     63 H11        30.1019   38.7535   20.8539 H           1 L04       0.0430
     64 H12        31.5518   39.1714   19.9855 H           1 L04       0.0430
     65 H13        31.8301   41.5826   19.1320 H           1 L04       0.0559
     66 H14        30.6916   43.3076   17.9207 H           1 L04       0.0604
     67 H15        26.9906   41.8355   19.3212 H           1 L04       0.0604
     68 H16        28.1382   40.1475   20.5516 H           1 L04       0.0559
     69 H17        25.5581   46.0211   18.0709 H           1 L04       0.0604
     70 H18        30.6049   37.3128   22.8487 H           1 L04       0.0313
     71 H19        32.2234   37.7910   23.3150 H           1 L04       0.0313
     72 H20        26.7637   40.3124   22.9964 H           1 L04       0.0805
     73 H21        25.1202   38.3618   23.3543 H           1 L04       0.0315
     74 H22        26.5318   37.3067   23.3193 H           1 L04       0.0315
     75 H23        26.9819   38.0734   20.9530 H           1 L04       0.0298
     76 H24        25.7706   40.2471   20.9167 H           1 L04       0.0232
     77 H25        24.2251   39.4233   21.1854 H           1 L04       0.0232
     78 H26        25.1241   39.1769   19.6759 H           1 L04       0.0232
     79 H27        33.1791   34.7893   25.9292 H           1 L04       0.0267
     80 H28        33.4430   36.5040   25.7476 H           1 L04       0.0267
     81 H29        33.1156   35.7313   23.0637 H           1 L04       0.0285
     82 H30        33.6721   34.2410   23.7744 H           1 L04       0.0285
     83 H31        35.6969   35.1413   23.1695 H           1 L04       0.0523
     84 H32        35.6321   35.7623   24.8091 H           1 L04       0.0523
     85 H33        34.8015   36.9469   21.2695 H           1 L04       0.0699
     86 H34        36.5600   37.0684   21.6491 H           1 L04       0.0699
     87 H35        27.5322   39.8834   27.8387 H           1 L04       0.0502
     88 H36        26.8042   39.7789   30.1343 H           1 L04       0.0577
     89 H37        24.8076   38.5258   30.7297 H           1 L04       0.0487
     90 H38        23.5511   37.3584   29.0103 H           1 L04       0.0577
     91 H39        24.2734   37.4394   26.7125 H           1 L04       0.0502
     92 H40        34.6675   41.0839   24.2532 H           1 L04       0.0651
     93 H41        35.8559   39.3610   19.8452 H           1 L04       0.0569
     94 H42        35.4410   41.7398   20.1615 H           1 L04       0.0635
     95 H43        34.8777   42.6033   22.3618 H           1 L04       0.0572
     96 H44        27.8266   45.0723   14.6542 H           1 L04       0.0604
     97 H45        29.0472   43.4223   15.9099 H           1 L04       0.0606
     98 H46        28.6242   38.2234   22.9146 H           1 L04       0.1883
     99 H47        26.0069   37.8618   25.2824 H           1 L04       0.2257
@<TRIPOS>BOND
     1     1    23   1
     2     1     2   1
     3     2    18   1
     4     2     3   1
     5     3    49  ar
     6     3    48  ar
     7    18     7   1
     8     7    16   1
     9     7     8   1
    10     8     9   1
    11     9    10   1
    12    10    15  ar
    13    10    11  ar
    14    11    12  ar
    15    12    13  ar
    16    13    14  ar
    17    13     5   1
    18     5    43  ar
    19     5     6  ar
    20     6    17  ar
    21    17    41  ar
    22    41    42  ar
    23    42    43  ar
    24    14    15  ar
    25    16    50   2
    26    16    45  am
    27    45    19   1
    28    19    27   1
    29    19    20   1
    30    20    21   1
    31    21     4   1
    32    21    22   1
    33    27    51   2
    34    27    46  am
    35    46    30   1
    36    30    35  ar
    37    30    31  ar
    38    31    32  ar
    39    32    33  ar
    40    33    34  ar
    41    34    35  ar
    42    23    24   1
    43    24    25   1
    44    25    44   1
    45    44    28   1
    46    44    26  am
    47    26    47   2
    48    26    29   1
    49    29    37  ar
    50    29    36  ar
    51    36    28   1
    52    36    38  ar
    53    38    39  ar
    54    39    40  ar
    55    40    37  ar
    56    41    52   1
    57     1    53   1
    58     1    54   1
    59     2    55   1
    60     4    56   1
    61     4    57   1
    62     4    58   1
    63     6    59   1
    64     7    60   1
    65     8    61   1
    66     8    62   1
    67     9    63   1
    68     9    64   1
    69    11    65   1
    70    12    66   1
    71    14    67   1
    72    15    68   1
    73    17    69   1
    74    18    70   1
    75    18    71   1
    76    19    72   1
    77    20    73   1
    78    20    74   1
    79    21    75   1
    80    22    76   1
    81    22    77   1
    82    22    78   1
    83    23    79   1
    84    23    80   1
    85    24    81   1
    86    24    82   1
    87    25    83   1
    88    25    84   1
    89    28    85   1
    90    28    86   1
    91    31    87   1
    92    32    88   1
    93    33    89   1
    94    34    90   1
    95    35    91   1
    96    37    92   1
    97    38    93   1
    98    39    94   1
    99    40    95   1
   100    42    96   1
   101    43    97   1
   102    45    98   1
   103    46    99   1
@<TRIPOS>SUBSTRUCTURE
     1  L04      1

