@<TRIPOS>MOLECULE
1hfs_ligand_012
    99   103
SMALL
GAST_HUCK
****
This file was generated by PARSER (from files_GN.cpp)

@<TRIPOS>ATOM
      1 C1         34.3071   36.9918   23.6207 C.3         1 L04      -0.0384
      2 C2         32.9037   37.5521   24.0366 C.3         1 L04       0.0141
      3 C3         32.5549   37.2684   25.4596 C.2         1 L04       0.0380
      4 C4         23.9148   38.8920   23.0360 C.3         1 L04      -0.0625
      5 C5         33.6227   42.6730   16.9418 C.ar        1 L04      -0.0257
      6 C6         33.6389   44.0387   16.5764 C.ar        1 L04      -0.0571
      7 C7         30.6758   38.3560   22.8540 C.3         1 L04       0.0523
      8 C8         30.8972   39.0423   21.4512 C.3         1 L04      -0.0232
      9 C9         30.5901   40.5676   21.3484 C.3         1 L04      -0.0166
     10 C10        31.3507   41.2039   20.2313 C.ar        1 L04      -0.0424
     11 C11        30.7022   41.7637   19.1045 C.ar        1 L04      -0.0596
     12 C12        31.4466   42.2783   18.0256 C.ar        1 L04      -0.0610
     13 C13        32.8583   42.2300   18.0454 C.ar        1 L04      -0.0267
     14 C14        33.5106   41.7026   19.1790 C.ar        1 L04      -0.0610
     15 C15        32.7650   41.2137   20.2634 C.ar        1 L04      -0.0596
     16 C16        29.2737   37.9877   23.0708 C.2         1 L04       0.1816
     17 C17        34.4594   44.4809   15.5219 C.ar        1 L04      -0.0282
     18 C18        31.7279   37.1885   23.0524 C.3         1 L04      -0.0186
     19 C19        26.9313   38.8089   23.2645 C.3         1 L04       0.1369
     20 C20        26.1952   37.8979   22.2132 C.3         1 L04      -0.0096
     21 C21        24.7087   38.2393   21.8669 C.3         1 L04      -0.0425
     22 C22        24.5998   39.0689   20.5599 C.3         1 L04      -0.0625
     23 C23        34.4554   35.5652   23.0197 C.3         1 L04      -0.0495
     24 C24        33.8278   34.3832   23.8262 C.3         1 L04      -0.0323
     25 C25        34.7974   33.1963   24.1227 C.3         1 L04       0.0356
     26 C26        36.0734   34.2518   25.9622 C.2         1 L04       0.2046
     27 C27        26.7165   38.3748   24.6532 C.2         1 L04       0.2292
     28 C28        35.2183   32.1713   26.3890 C.3         1 L04       0.0703
     29 C29        36.4064   33.9764   27.2560 C.ar        1 L04       0.0535
     30 C30        25.6620   38.7566   26.7645 C.ar        1 L04       0.0663
     31 C31        24.6134   37.8453   27.0237 C.ar        1 L04      -0.0413
     32 C32        24.3167   37.4596   28.3445 C.ar        1 L04      -0.0755
     33 C33        25.0735   37.9706   29.4155 C.ar        1 L04      -0.0772
     34 C34        26.1117   38.8889   29.1653 C.ar        1 L04      -0.0755
     35 C35        26.4002   39.2870   27.8460 C.ar        1 L04      -0.0413
     36 C36        35.9280   32.7018   27.5517 C.ar        1 L04      -0.0003
     37 C37        37.0807   34.7396   28.2278 C.ar        1 L04      -0.0484
     38 C38        36.1399   32.1280   28.8164 C.ar        1 L04      -0.0524
     39 C39        36.8234   32.8775   29.7965 C.ar        1 L04      -0.0641
     40 C40        37.2799   34.1837   29.5064 C.ar        1 L04      -0.0630
     41 C41        35.2623   43.5659   14.8151 C.ar        1 L04       0.1322
     42 C42        35.2421   42.2020   15.1642 C.ar        1 L04      -0.0282
     43 C43        34.4315   41.7597   16.2259 C.ar        1 L04      -0.0571
     44 N1         35.3697   33.2457   25.4484 N.am        1 L04      -0.2613
     45 N18        28.3401   38.9321   23.0060 N.am        1 L04      -0.2649
     46 N29        25.9821   39.1107   25.4908 N.am        1 L04      -0.2320
     47 O1         36.3752   35.2898   25.3855 O.2         1 L04      -0.3882
     48 O4         31.2859   37.1152   25.9080 O.co2       1 L04      -0.5687
     49 O5         33.5073   37.2948   26.4157 O.co2       1 L04      -0.5687
     50 O17        28.9556   36.8509   23.3944 O.2         1 L04      -0.3966
     51 O28        27.2559   37.3351   25.0311 O.2         1 L04      -0.3823
     52 F1         36.0309   43.9778   13.8443 F           1 L04      -0.1835
     53 H1         34.7102   37.6693   22.8583 H           1 L04       0.0286
     54 H2         34.9858   37.0719   24.4753 H           1 L04       0.0286
     55 H3         33.0366   38.6408   23.9963 H           1 L04       0.0467
     56 H4         22.8655   39.0200   22.7468 H           1 L04       0.0232
     57 H5         24.3242   39.8747   23.2807 H           1 L04       0.0232
     58 H6         23.9570   38.2472   23.9179 H           1 L04       0.0232
     59 H7         33.0781   44.7219   17.0921 H           1 L04       0.0606
     60 H8         30.8785   39.1096   23.6236 H           1 L04       0.0541
     61 H9         30.3107   38.5146   20.6863 H           1 L04       0.0315
     62 H10        31.9493   38.9082   21.1775 H           1 L04       0.0315
     63 H11        30.8671   41.0700   22.2790 H           1 L04       0.0430
     64 H12        29.5156   40.7023   21.2108 H           1 L04       0.0430
     65 H13        29.6811   41.7765   19.0500 H           1 L04       0.0559
     66 H14        30.9539   42.6598   17.2129 H           1 L04       0.0604
     67 H15        34.5329   41.6642   19.2238 H           1 L04       0.0604
     68 H16        33.2679   40.8384   21.0714 H           1 L04       0.0559
     69 H17        34.4755   45.4748   15.2794 H           1 L04       0.0604
     70 H18        31.2550   36.2669   23.4102 H           1 L04       0.0313
     71 H19        32.1339   36.9119   22.0749 H           1 L04       0.0313
     72 H20        26.5553   39.8332   23.1369 H           1 L04       0.0805
     73 H21        26.2217   36.8608   22.5570 H           1 L04       0.0315
     74 H22        26.7690   37.9086   21.2759 H           1 L04       0.0315
     75 H23        24.2174   37.2836   21.6498 H           1 L04       0.0298
     76 H24        24.9805   38.4934   19.7130 H           1 L04       0.0232
     77 H25        25.1766   39.9924   20.6345 H           1 L04       0.0232
     78 H26        23.5598   39.3197   20.3499 H           1 L04       0.0232
     79 H27        35.5292   35.3975   22.8790 H           1 L04       0.0267
     80 H28        34.0240   35.5650   22.0146 H           1 L04       0.0267
     81 H29        32.9778   34.0036   23.2454 H           1 L04       0.0285
     82 H30        33.4142   34.7418   24.7713 H           1 L04       0.0285
     83 H31        35.6103   33.1552   23.3942 H           1 L04       0.0523
     84 H32        34.2318   32.2704   24.0007 H           1 L04       0.0523
     85 H33        35.6912   31.2579   26.0225 H           1 L04       0.0699
     86 H34        34.1610   32.0012   26.6197 H           1 L04       0.0699
     87 H35        24.0539   37.4706   26.2550 H           1 L04       0.0502
     88 H36        23.5596   36.7957   28.5204 H           1 L04       0.0577
     89 H37        24.8756   37.6661   30.3703 H           1 L04       0.0487
     90 H38        26.6703   39.2524   29.9403 H           1 L04       0.0577
     91 H39        27.1647   39.9467   27.6733 H           1 L04       0.0502
     92 H40        37.4060   35.6824   28.0187 H           1 L04       0.0651
     93 H41        35.8022   31.1874   29.0231 H           1 L04       0.0569
     94 H42        36.9822   32.4724   30.7245 H           1 L04       0.0635
     95 H43        37.7642   34.7196   30.2293 H           1 L04       0.0572
     96 H44        35.8227   41.5306   14.6537 H           1 L04       0.0604
     97 H45        34.4385   40.7651   16.4710 H           1 L04       0.0606
     98 H46        28.6406   39.8231   22.7503 H           1 L04       0.1883
     99 H47        25.6658   39.9798   25.1888 H           1 L04       0.2257
@<TRIPOS>BOND
     1     1    23   1
     2     1     2   1
     3     2    18   1
     4     2     3   1
     5     3    49  ar
     6     3    48  ar
     7    18     7   1
     8     7    16   1
     9     7     8   1
    10     8     9   1
    11     9    10   1
    12    10    15  ar
    13    10    11  ar
    14    11    12  ar
    15    12    13  ar
    16    13    14  ar
    17    13     5   1
    18     5    43  ar
    19     5     6  ar
    20     6    17  ar
    21    17    41  ar
    22    41    42  ar
    23    42    43  ar
    24    14    15  ar
    25    16    50   2
    26    16    45  am
    27    45    19   1
    28    19    27   1
    29    19    20   1
    30    20    21   1
    31    21     4   1
    32    21    22   1
    33    27    51   2
    34    27    46  am
    35    46    30   1
    36    30    35  ar
    37    30    31  ar
    38    31    32  ar
    39    32    33  ar
    40    33    34  ar
    41    34    35  ar
    42    23    24   1
    43    24    25   1
    44    25    44   1
    45    44    28   1
    46    44    26  am
    47    26    47   2
    48    26    29   1
    49    29    37  ar
    50    29    36  ar
    51    36    28   1
    52    36    38  ar
    53    38    39  ar
    54    39    40  ar
    55    40    37  ar
    56    41    52   1
    57     1    53   1
    58     1    54   1
    59     2    55   1
    60     4    56   1
    61     4    57   1
    62     4    58   1
    63     6    59   1
    64     7    60   1
    65     8    61   1
    66     8    62   1
    67     9    63   1
    68     9    64   1
    69    11    65   1
    70    12    66   1
    71    14    67   1
    72    15    68   1
    73    17    69   1
    74    18    70   1
    75    18    71   1
    76    19    72   1
    77    20    73   1
    78    20    74   1
    79    21    75   1
    80    22    76   1
    81    22    77   1
    82    22    78   1
    83    23    79   1
    84    23    80   1
    85    24    81   1
    86    24    82   1
    87    25    83   1
    88    25    84   1
    89    28    85   1
    90    28    86   1
    91    31    87   1
    92    32    88   1
    93    33    89   1
    94    34    90   1
    95    35    91   1
    96    37    92   1
    97    38    93   1
    98    39    94   1
    99    40    95   1
   100    42    96   1
   101    43    97   1
   102    45    98   1
   103    46    99   1
@<TRIPOS>SUBSTRUCTURE
     1  L04      1

