@<TRIPOS>MOLECULE
1hfs_ligand_085
    99   103
SMALL
GAST_HUCK
****
This file was generated by PARSER (from files_GN.cpp)

@<TRIPOS>ATOM
      1 C1         33.4311   40.1496   24.6680 C.3         1 L04      -0.0384
      2 C2         32.0061   39.5123   24.4817 C.3         1 L04       0.0141
      3 C3         31.7010   38.5728   25.5961 C.2         1 L04       0.0380
      4 C4         25.2629   36.8259   20.9949 C.3         1 L04      -0.0625
      5 C5         31.0408   39.9708   14.2052 C.ar        1 L04      -0.0257
      6 C6         29.9518   40.5670   13.5304 C.ar        1 L04      -0.0571
      7 C7         30.4853   39.3038   22.3075 C.3         1 L04       0.0523
      8 C8         30.5352   39.0047   20.7658 C.3         1 L04      -0.0232
      9 C9         31.4539   39.9667   19.9497 C.3         1 L04      -0.0166
     10 C10        31.2751   39.9754   18.4649 C.ar        1 L04      -0.0424
     11 C11        30.8302   38.8325   17.7615 C.ar        1 L04      -0.0596
     12 C12        30.7436   38.8383   16.3551 C.ar        1 L04      -0.0610
     13 C13        31.1099   39.9862   15.6192 C.ar        1 L04      -0.0267
     14 C14        31.5682   41.1236   16.3120 C.ar        1 L04      -0.0610
     15 C15        31.6551   41.1162   17.7167 C.ar        1 L04      -0.0596
     16 C16        29.2367   38.7886   22.8844 C.2         1 L04       0.1816
     17 C17        29.8415   40.4637   12.1301 C.ar        1 L04      -0.0282
     18 C18        31.7670   38.8257   23.0859 C.3         1 L04      -0.0186
     19 C19        26.9073   39.3659   23.6194 C.3         1 L04       0.1369
     20 C20        26.1643   38.1461   22.9794 C.3         1 L04      -0.0096
     21 C21        26.0395   38.1053   21.4272 C.3         1 L04      -0.0425
     22 C22        25.3616   39.3729   20.8389 C.3         1 L04      -0.0625
     23 C23        33.6355   41.5671   24.0370 C.3         1 L04      -0.0495
     24 C24        34.2651   41.6597   22.6165 C.3         1 L04      -0.0323
     25 C25        35.8160   41.5802   22.5326 C.3         1 L04       0.0356
     26 C26        36.1694   39.1971   22.0125 C.2         1 L04       0.2046
     27 C27        26.8391   39.2678   25.0717 C.2         1 L04       0.2292
     28 C28        37.5836   40.0995   23.5694 C.3         1 L04       0.0703
     29 C29        37.0779   38.2218   22.2931 C.ar        1 L04       0.0535
     30 C30        25.4019   39.4004   27.0047 C.ar        1 L04       0.0663
     31 C31        24.7631   40.5205   27.5830 C.ar        1 L04      -0.0413
     32 C32        24.4787   40.5394   28.9624 C.ar        1 L04      -0.0755
     33 C33        24.8030   39.4342   29.7664 C.ar        1 L04      -0.0772
     34 C34        25.4065   38.2985   29.1919 C.ar        1 L04      -0.0755
     35 C35        25.7139   38.2867   27.8227 C.ar        1 L04      -0.0413
     36 C36        37.9751   38.7337   23.2266 C.ar        1 L04      -0.0003
     37 C37        37.2414   36.9196   21.7793 C.ar        1 L04      -0.0484
     38 C38        39.0813   37.9773   23.6577 C.ar        1 L04      -0.0524
     39 C39        39.2657   36.6812   23.1341 C.ar        1 L04      -0.0641
     40 C40        38.3444   36.1504   22.2071 C.ar        1 L04      -0.0630
     41 C41        30.8259   39.7778   11.3934 C.ar        1 L04       0.1322
     42 C42        31.9230   39.1992   12.0567 C.ar        1 L04      -0.0282
     43 C43        32.0281   39.2908   13.4570 C.ar        1 L04      -0.0571
     44 N1         36.4343   40.2888   22.7220 N.am        1 L04      -0.2613
     45 N18        28.2235   39.6314   23.0941 N.am        1 L04      -0.2649
     46 N29        25.6616   39.4247   25.6726 N.am        1 L04      -0.2320
     47 O1         35.3158   39.0944   21.1408 O.2         1 L04      -0.3882
     48 O4         30.5203   38.6363   26.2514 O.co2       1 L04      -0.5687
     49 O5         32.6093   37.6713   26.0401 O.co2       1 L04      -0.5687
     50 O17        29.0858   37.5854   23.0635 O.2         1 L04      -0.3966
     51 O28        27.8678   39.1578   25.7468 O.2         1 L04      -0.3823
     52 F1         30.7145   39.6692   10.0978 F           1 L04      -0.1835
     53 H1         33.6156   40.2711   25.7413 H           1 L04       0.0286
     54 H2         34.1980   39.4647   24.3017 H           1 L04       0.0286
     55 H3         31.2844   40.3283   24.5877 H           1 L04       0.0467
     56 H4         25.1800   36.7748   19.9064 H           1 L04       0.0232
     57 H5         24.2597   36.8235   21.4236 H           1 L04       0.0232
     58 H6         25.7828   35.9288   21.3401 H           1 L04       0.0232
     59 H7         29.2174   41.0526   14.0539 H           1 L04       0.0606
     60 H8         30.4640   40.3956   22.4034 H           1 L04       0.0541
     61 H9         29.5225   39.0926   20.3554 H           1 L04       0.0315
     62 H10        30.8639   37.9717   20.6214 H           1 L04       0.0315
     63 H11        32.4953   39.7070   20.1437 H           1 L04       0.0430
     64 H12        31.2950   40.9794   20.3337 H           1 L04       0.0430
     65 H13        30.5653   37.9812   18.2609 H           1 L04       0.0559
     66 H14        30.4091   37.9993   15.8768 H           1 L04       0.0604
     67 H15        31.8622   41.9598   15.8011 H           1 L04       0.0604
     68 H16        32.0208   41.9458   18.1901 H           1 L04       0.0559
     69 H17        29.0365   40.8746   11.6535 H           1 L04       0.0604
     70 H18        31.7464   37.7345   23.1814 H           1 L04       0.0313
     71 H19        32.6307   39.0211   22.4612 H           1 L04       0.0313
     72 H20        26.3371   40.2594   23.3498 H           1 L04       0.0805
     73 H21        25.1494   38.1086   23.3905 H           1 L04       0.0315
     74 H22        26.6802   37.2367   23.2976 H           1 L04       0.0315
     75 H23        27.0464   38.0350   20.9991 H           1 L04       0.0298
     76 H24        26.0063   40.2407   20.9811 H           1 L04       0.0232
     77 H25        24.4008   39.5563   21.3253 H           1 L04       0.0232
     78 H26        25.1947   39.2545   19.7648 H           1 L04       0.0232
     79 H27        34.2581   42.1656   24.7119 H           1 L04       0.0267
     80 H28        32.6637   42.0717   24.0075 H           1 L04       0.0267
     81 H29        33.9877   42.6342   22.2064 H           1 L04       0.0285
     82 H30        33.8281   40.9209   21.9511 H           1 L04       0.0285
     83 H31        36.2236   42.3044   23.2511 H           1 L04       0.0523
     84 H32        36.1099   41.9366   21.5403 H           1 L04       0.0523
     85 H33        37.3227   40.1810   24.6280 H           1 L04       0.0699
     86 H34        38.3856   40.7977   23.3162 H           1 L04       0.0699
     87 H35        24.5220   41.3289   27.0085 H           1 L04       0.0502
     88 H36        24.0374   41.3657   29.3792 H           1 L04       0.0577
     89 H37        24.5885   39.4482   30.7664 H           1 L04       0.0487
     90 H38        25.6204   37.4884   29.7704 H           1 L04       0.0577
     91 H39        26.1409   37.4520   27.4065 H           1 L04       0.0502
     92 H40        36.5837   36.5431   21.0962 H           1 L04       0.0651
     93 H41        39.7508   38.3648   24.3242 H           1 L04       0.0569
     94 H42        40.0734   36.1246   23.4232 H           1 L04       0.0635
     95 H43        38.4833   35.2089   21.8356 H           1 L04       0.0572
     96 H44        32.6362   38.6951   11.5276 H           1 L04       0.0604
     97 H45        32.8238   38.8495   13.9271 H           1 L04       0.0606
     98 H46        28.3931   40.5609   22.8644 H           1 L04       0.1883
     99 H47        24.9131   39.6622   25.0941 H           1 L04       0.2257
@<TRIPOS>BOND
     1     1    23   1
     2     1     2   1
     3     2    18   1
     4     2     3   1
     5     3    49  ar
     6     3    48  ar
     7    18     7   1
     8     7    16   1
     9     7     8   1
    10     8     9   1
    11     9    10   1
    12    10    15  ar
    13    10    11  ar
    14    11    12  ar
    15    12    13  ar
    16    13    14  ar
    17    13     5   1
    18     5    43  ar
    19     5     6  ar
    20     6    17  ar
    21    17    41  ar
    22    41    42  ar
    23    42    43  ar
    24    14    15  ar
    25    16    50   2
    26    16    45  am
    27    45    19   1
    28    19    27   1
    29    19    20   1
    30    20    21   1
    31    21     4   1
    32    21    22   1
    33    27    51   2
    34    27    46  am
    35    46    30   1
    36    30    35  ar
    37    30    31  ar
    38    31    32  ar
    39    32    33  ar
    40    33    34  ar
    41    34    35  ar
    42    23    24   1
    43    24    25   1
    44    25    44   1
    45    44    28   1
    46    44    26  am
    47    26    47   2
    48    26    29   1
    49    29    37  ar
    50    29    36  ar
    51    36    28   1
    52    36    38  ar
    53    38    39  ar
    54    39    40  ar
    55    40    37  ar
    56    41    52   1
    57     1    53   1
    58     1    54   1
    59     2    55   1
    60     4    56   1
    61     4    57   1
    62     4    58   1
    63     6    59   1
    64     7    60   1
    65     8    61   1
    66     8    62   1
    67     9    63   1
    68     9    64   1
    69    11    65   1
    70    12    66   1
    71    14    67   1
    72    15    68   1
    73    17    69   1
    74    18    70   1
    75    18    71   1
    76    19    72   1
    77    20    73   1
    78    20    74   1
    79    21    75   1
    80    22    76   1
    81    22    77   1
    82    22    78   1
    83    23    79   1
    84    23    80   1
    85    24    81   1
    86    24    82   1
    87    25    83   1
    88    25    84   1
    89    28    85   1
    90    28    86   1
    91    31    87   1
    92    32    88   1
    93    33    89   1
    94    34    90   1
    95    35    91   1
    96    37    92   1
    97    38    93   1
    98    39    94   1
    99    40    95   1
   100    42    96   1
   101    43    97   1
   102    45    98   1
   103    46    99   1
@<TRIPOS>SUBSTRUCTURE
     1  L04      1

