@<TRIPOS>MOLECULE
1hfs_ligand_042
    99   103
SMALL
GAST_HUCK
****
This file was generated by PARSER (from files_GN.cpp)

@<TRIPOS>ATOM
      1 C1         37.5512   38.5584   22.3648 C.3         1 L04      -0.0384
      2 C2         37.0395   37.6041   23.4996 C.3         1 L04       0.0141
      3 C3         37.2990   36.1747   23.1795 C.2         1 L04       0.0380
      4 C4         33.8048   42.0526   22.1845 C.3         1 L04      -0.0625
      5 C5         36.9588   32.6899   27.9207 C.ar        1 L04      -0.0257
      6 C6         38.1514   33.2735   28.4204 C.ar        1 L04      -0.0571
      7 C7         34.3708   37.4474   22.9942 C.3         1 L04       0.0523
      8 C8         33.7021   36.0657   23.3383 C.3         1 L04      -0.0232
      9 C9         33.2076   35.8057   24.8036 C.3         1 L04      -0.0166
     10 C10        34.1601   35.0155   25.6326 C.ar        1 L04      -0.0424
     11 C11        34.3921   33.6552   25.3346 C.ar        1 L04      -0.0596
     12 C12        35.3158   32.8977   26.0766 C.ar        1 L04      -0.0610
     13 C13        36.0122   33.4622   27.1725 C.ar        1 L04      -0.0267
     14 C14        35.7456   34.8172   27.4943 C.ar        1 L04      -0.0610
     15 C15        34.8395   35.5807   26.7342 C.ar        1 L04      -0.0596
     16 C16        33.3436   38.4864   22.8801 C.2         1 L04       0.1816
     17 C17        39.0951   32.5081   29.1308 C.ar        1 L04      -0.0282
     18 C18        35.5561   37.8732   23.9459 C.3         1 L04      -0.0186
     19 C19        31.8413   39.7864   21.3835 C.3         1 L04       0.1369
     20 C20        32.3987   40.8234   20.3532 C.3         1 L04      -0.0096
     21 C21        33.7151   41.5998   20.6999 C.3         1 L04      -0.0425
     22 C22        35.0063   40.8567   20.2586 C.3         1 L04      -0.0625
     23 C23        38.9418   39.2151   22.6043 C.3         1 L04      -0.0495
     24 C24        40.0444   38.2896   23.1895 C.3         1 L04      -0.0323
     25 C25        41.4621   38.9143   23.0599 C.3         1 L04       0.0356
     26 C26        42.0027   40.4252   21.1857 C.2         1 L04       0.2046
     27 C27        30.6161   39.1770   20.8614 C.2         1 L04       0.2292
     28 C28        42.0601   38.1822   20.7215 C.3         1 L04       0.0703
     29 C29        42.3452   40.3332   19.8717 C.ar        1 L04       0.0535
     30 C30        28.1727   39.3610   20.7775 C.ar        1 L04       0.0663
     31 C31        27.1217   39.7222   21.6518 C.ar        1 L04      -0.0413
     32 C32        25.7841   39.3996   21.3480 C.ar        1 L04      -0.0755
     33 C33        25.4758   38.7361   20.1494 C.ar        1 L04      -0.0772
     34 C34        26.5025   38.3929   19.2565 C.ar        1 L04      -0.0755
     35 C35        27.8415   38.7048   19.5649 C.ar        1 L04      -0.0413
     36 C36        42.4025   38.9805   19.5474 C.ar        1 L04      -0.0003
     37 C37        42.6151   41.3176   18.9007 C.ar        1 L04      -0.0484
     38 C38        42.7373   38.5592   18.2479 C.ar        1 L04      -0.0524
     39 C39        43.0245   39.5354   17.2719 C.ar        1 L04      -0.0641
     40 C40        42.9584   40.9085   17.5955 C.ar        1 L04      -0.0630
     41 C41        38.8669   31.1394   29.3547 C.ar        1 L04       0.1322
     42 C42        37.6889   30.5426   28.8752 C.ar        1 L04      -0.0282
     43 C43        36.7438   31.3103   28.1695 C.ar        1 L04      -0.0571
     44 N1         41.8272   39.2116   21.6974 N.am        1 L04      -0.2613
     45 N18        32.8238   38.7797   21.6912 N.am        1 L04      -0.2649
     46 N29        29.4346   39.7097   21.1713 N.am        1 L04      -0.2320
     47 O1         41.8787   41.4859   21.7831 O.2         1 L04      -0.3882
     48 O4         36.6611   35.5765   22.1419 O.co2       1 L04      -0.5687
     49 O5         38.2939   35.5064   23.8097 O.co2       1 L04      -0.5687
     50 O17        32.9559   39.0514   23.8974 O.2         1 L04      -0.3966
     51 O28        30.7123   38.2045   20.1196 O.2         1 L04      -0.3823
     52 F1         39.7448   30.4245   30.0029 F           1 L04      -0.1835
     53 H1         37.5688   38.0348   21.4032 H           1 L04       0.0286
     54 H2         36.8510   39.3908   22.2575 H           1 L04       0.0286
     55 H3         37.6334   37.8376   24.3919 H           1 L04       0.0467
     56 H4         34.5786   42.8208   22.2987 H           1 L04       0.0232
     57 H5         34.0609   41.2098   22.8351 H           1 L04       0.0232
     58 H6         32.8444   42.4702   22.5091 H           1 L04       0.0232
     59 H7         38.3536   34.2632   28.2578 H           1 L04       0.0606
     60 H8         34.8099   37.3186   21.9984 H           1 L04       0.0541
     61 H9         34.3897   35.2716   23.0448 H           1 L04       0.0315
     62 H10        32.8354   35.9462   22.6798 H           1 L04       0.0315
     63 H11        32.2692   35.2426   24.7696 H           1 L04       0.0430
     64 H12        32.9711   36.7568   25.2907 H           1 L04       0.0430
     65 H13        33.9149   33.2097   24.5483 H           1 L04       0.0559
     66 H14        35.4831   31.9247   25.7963 H           1 L04       0.0604
     67 H15        36.2135   35.2619   28.2913 H           1 L04       0.0604
     68 H16        34.6668   36.5492   27.0082 H           1 L04       0.0559
     69 H17        39.9487   32.9506   29.4799 H           1 L04       0.0604
     70 H18        35.4862   38.9516   24.1552 H           1 L04       0.0313
     71 H19        35.4201   37.3902   24.9189 H           1 L04       0.0313
     72 H20        31.5873   40.3447   22.2929 H           1 L04       0.0805
     73 H21        31.6164   41.5732   20.2072 H           1 L04       0.0315
     74 H22        32.5373   40.3322   19.3862 H           1 L04       0.0315
     75 H23        33.6988   42.5158   20.1022 H           1 L04       0.0298
     76 H24        35.0447   40.7863   19.1694 H           1 L04       0.0232
     77 H25        35.0397   39.8486   20.6681 H           1 L04       0.0232
     78 H26        35.8971   41.3977   20.5910 H           1 L04       0.0232
     79 H27        38.8149   40.0640   23.2846 H           1 L04       0.0267
     80 H28        39.2815   39.6128   21.6422 H           1 L04       0.0267
     81 H29        40.0151   37.3150   22.6936 H           1 L04       0.0285
     82 H30        39.8466   38.1196   24.2530 H           1 L04       0.0285
     83 H31        42.1976   38.2168   23.4729 H           1 L04       0.0523
     84 H32        41.4964   39.8117   23.6873 H           1 L04       0.0523
     85 H33        41.1627   37.5911   20.5232 H           1 L04       0.0699
     86 H34        42.8906   37.5326   21.0110 H           1 L04       0.0699
     87 H35        27.3204   40.2220   22.5228 H           1 L04       0.0502
     88 H36        25.0372   39.6497   22.0003 H           1 L04       0.0577
     89 H37        24.5051   38.5003   19.9286 H           1 L04       0.0487
     90 H38        26.2769   37.9263   18.3753 H           1 L04       0.0577
     91 H39        28.5598   38.4739   18.8791 H           1 L04       0.0502
     92 H40        42.5622   42.3119   19.1352 H           1 L04       0.0651
     93 H41        42.7714   37.5653   18.0176 H           1 L04       0.0569
     94 H42        43.2736   39.2468   16.3244 H           1 L04       0.0635
     95 H43        43.1596   41.6090   16.8796 H           1 L04       0.0572
     96 H44        37.5094   29.5510   29.0423 H           1 L04       0.0604
     97 H45        35.8888   30.8493   27.8467 H           1 L04       0.0606
     98 H46        33.1420   38.2497   20.9393 H           1 L04       0.1883
     99 H47        29.4719   40.4381   21.8117 H           1 L04       0.2257
@<TRIPOS>BOND
     1     1    23   1
     2     1     2   1
     3     2    18   1
     4     2     3   1
     5     3    49  ar
     6     3    48  ar
     7    18     7   1
     8     7    16   1
     9     7     8   1
    10     8     9   1
    11     9    10   1
    12    10    15  ar
    13    10    11  ar
    14    11    12  ar
    15    12    13  ar
    16    13    14  ar
    17    13     5   1
    18     5    43  ar
    19     5     6  ar
    20     6    17  ar
    21    17    41  ar
    22    41    42  ar
    23    42    43  ar
    24    14    15  ar
    25    16    50   2
    26    16    45  am
    27    45    19   1
    28    19    27   1
    29    19    20   1
    30    20    21   1
    31    21     4   1
    32    21    22   1
    33    27    51   2
    34    27    46  am
    35    46    30   1
    36    30    35  ar
    37    30    31  ar
    38    31    32  ar
    39    32    33  ar
    40    33    34  ar
    41    34    35  ar
    42    23    24   1
    43    24    25   1
    44    25    44   1
    45    44    28   1
    46    44    26  am
    47    26    47   2
    48    26    29   1
    49    29    37  ar
    50    29    36  ar
    51    36    28   1
    52    36    38  ar
    53    38    39  ar
    54    39    40  ar
    55    40    37  ar
    56    41    52   1
    57     1    53   1
    58     1    54   1
    59     2    55   1
    60     4    56   1
    61     4    57   1
    62     4    58   1
    63     6    59   1
    64     7    60   1
    65     8    61   1
    66     8    62   1
    67     9    63   1
    68     9    64   1
    69    11    65   1
    70    12    66   1
    71    14    67   1
    72    15    68   1
    73    17    69   1
    74    18    70   1
    75    18    71   1
    76    19    72   1
    77    20    73   1
    78    20    74   1
    79    21    75   1
    80    22    76   1
    81    22    77   1
    82    22    78   1
    83    23    79   1
    84    23    80   1
    85    24    81   1
    86    24    82   1
    87    25    83   1
    88    25    84   1
    89    28    85   1
    90    28    86   1
    91    31    87   1
    92    32    88   1
    93    33    89   1
    94    34    90   1
    95    35    91   1
    96    37    92   1
    97    38    93   1
    98    39    94   1
    99    40    95   1
   100    42    96   1
   101    43    97   1
   102    45    98   1
   103    46    99   1
@<TRIPOS>SUBSTRUCTURE
     1  L04      1

