@<TRIPOS>MOLECULE
1hfs_ligand_056
    99   103
SMALL
GAST_HUCK
****
This file was generated by PARSER (from files_GN.cpp)

@<TRIPOS>ATOM
      1 C1         31.9784   37.4955   23.2266 C.3         1 L04      -0.0384
      2 C2         32.2048   36.1664   24.0239 C.3         1 L04       0.0141
      3 C3         32.1818   36.3735   25.4958 C.2         1 L04       0.0380
      4 C4         39.3628   39.1883   20.0484 C.3         1 L04      -0.0625
      5 C5         37.8593   32.8910   30.3420 C.ar        1 L04      -0.0257
      6 C6         37.5994   31.7199   31.0976 C.ar        1 L04      -0.0571
      7 C7         34.8964   35.6342   24.0301 C.3         1 L04       0.0523
      8 C8         35.8203   34.3648   24.0953 C.3         1 L04      -0.0232
      9 C9         35.3980   33.2574   25.1257 C.3         1 L04      -0.0166
     10 C10        36.1358   33.2356   26.4205 C.ar        1 L04      -0.0424
     11 C11        35.9641   34.2585   27.3830 C.ar        1 L04      -0.0596
     12 C12        36.5736   34.1720   28.6488 C.ar        1 L04      -0.0610
     13 C13        37.3362   33.0363   29.0196 C.ar        1 L04      -0.0267
     14 C14        37.5283   32.0276   28.0470 C.ar        1 L04      -0.0610
     15 C15        36.9376   32.1234   26.7724 C.ar        1 L04      -0.0596
     16 C16        35.5220   36.6484   23.1671 C.2         1 L04       0.1816
     17 C17        38.1063   31.5739   32.4037 C.ar        1 L04      -0.0282
     18 C18        33.4275   35.3082   23.5380 C.3         1 L04      -0.0186
     19 C19        36.7295   38.8412   23.0153 C.3         1 L04       0.1369
     20 C20        37.8145   38.4200   21.9655 C.3         1 L04      -0.0096
     21 C21        38.8427   39.5156   21.4819 C.3         1 L04      -0.0425
     22 C22        38.3331   40.9857   21.5247 C.3         1 L04      -0.0625
     23 C23        31.0699   38.5311   23.9728 C.3         1 L04      -0.0495
     24 C24        30.6862   39.7832   23.1096 C.3         1 L04      -0.0323
     25 C25        30.0639   40.9713   23.9093 C.3         1 L04       0.0356
     26 C26        32.2083   41.5511   25.0054 C.2         1 L04       0.2046
     27 C27        35.7542   39.7663   22.4306 C.2         1 L04       0.2292
     28 C28        30.3090   42.0152   26.1947 C.3         1 L04       0.0703
     29 C29        32.6403   42.0406   26.1945 C.ar        1 L04       0.0535
     30 C30        34.0297   40.0559   20.7458 C.ar        1 L04       0.0663
     31 C31        34.3597   41.2507   20.0600 C.ar        1 L04      -0.0413
     32 C32        33.4006   41.8797   19.2381 C.ar        1 L04      -0.0755
     33 C33        32.0960   41.3469   19.1226 C.ar        1 L04      -0.0772
     34 C34        31.7706   40.1549   19.7999 C.ar        1 L04      -0.0755
     35 C35        32.7388   39.5020   20.5929 C.ar        1 L04      -0.0413
     36 C36        31.5104   42.3769   26.9380 C.ar        1 L04      -0.0003
     37 C37        33.9282   42.2394   26.7179 C.ar        1 L04      -0.0484
     38 C38        31.6257   42.9544   28.2133 C.ar        1 L04      -0.0524
     39 C39        32.9132   43.1717   28.7440 C.ar        1 L04      -0.0641
     40 C40        34.0611   42.7873   28.0095 C.ar        1 L04      -0.0630
     41 C41        38.8923   32.5928   32.9714 C.ar        1 L04       0.1322
     42 C42        39.1507   33.7634   32.2395 C.ar        1 L04      -0.0282
     43 C43        38.6307   33.9175   30.9382 C.ar        1 L04      -0.0571
     44 N1         30.8828   41.4756   24.9865 N.am        1 L04      -0.2613
     45 N18        36.0758   37.7384   23.6967 N.am        1 L04      -0.2649
     46 N29        34.9180   39.3425   21.4866 N.am        1 L04      -0.2320
     47 O1         32.9700   41.1594   24.1233 O.2         1 L04      -0.3882
     48 O4         31.0216   36.2299   26.1693 O.co2       1 L04      -0.5687
     49 O5         33.1962   37.0089   26.1314 O.co2       1 L04      -0.5687
     50 O17        35.5886   36.4493   21.9551 O.2         1 L04      -0.3966
     51 O28        35.6963   40.9129   22.8610 O.2         1 L04      -0.3823
     52 F1         39.3729   32.4512   34.1765 F           1 L04      -0.1835
     53 H1         32.9428   37.9479   22.9785 H           1 L04       0.0286
     54 H2         31.4781   37.2385   22.2903 H           1 L04       0.0286
     55 H3         31.3139   35.5623   23.7807 H           1 L04       0.0467
     56 H4         40.1670   39.8767   19.7643 H           1 L04       0.0232
     57 H5         38.5460   39.2877   19.3205 H           1 L04       0.0232
     58 H6         39.7514   38.1686   20.0025 H           1 L04       0.0232
     59 H7         37.0217   30.9663   30.7118 H           1 L04       0.0606
     60 H8         34.8587   36.0219   25.0582 H           1 L04       0.0541
     61 H9         36.8448   34.6747   24.3265 H           1 L04       0.0315
     62 H10        35.8402   33.9208   23.0930 H           1 L04       0.0315
     63 H11        35.5228   32.2981   24.6180 H           1 L04       0.0430
     64 H12        34.3375   33.3191   25.3718 H           1 L04       0.0430
     65 H13        35.3633   35.0629   27.1846 H           1 L04       0.0559
     66 H14        36.4106   34.9216   29.3235 H           1 L04       0.0604
     67 H15        38.0914   31.2001   28.2623 H           1 L04       0.0604
     68 H16        37.0789   31.3603   26.1053 H           1 L04       0.0559
     69 H17        37.9003   30.7269   32.9378 H           1 L04       0.0604
     70 H18        33.4055   35.2853   22.4429 H           1 L04       0.0313
     71 H19        33.1870   34.2851   23.8237 H           1 L04       0.0313
     72 H20        37.2724   39.3519   23.8207 H           1 L04       0.0805
     73 H21        37.3220   37.9849   21.0850 H           1 L04       0.0315
     74 H22        38.4143   37.6093   22.3958 H           1 L04       0.0315
     75 H23        39.7118   39.4688   22.1509 H           1 L04       0.0298
     76 H24        38.2033   41.3119   22.5554 H           1 L04       0.0232
     77 H25        37.3816   41.0754   20.9925 H           1 L04       0.0232
     78 H26        39.0639   41.6653   21.0561 H           1 L04       0.0232
     79 H27        31.5882   38.8504   24.8799 H           1 L04       0.0267
     80 H28        30.1403   38.0271   24.2694 H           1 L04       0.0267
     81 H29        29.9600   39.4677   22.3462 H           1 L04       0.0285
     82 H30        31.5671   40.1668   22.5808 H           1 L04       0.0285
     83 H31        29.0942   40.6376   24.2929 H           1 L04       0.0523
     84 H32        29.8688   41.7917   23.2054 H           1 L04       0.0523
     85 H33        29.7284   41.2551   26.7329 H           1 L04       0.0699
     86 H34        29.6890   42.8930   25.9829 H           1 L04       0.0699
     87 H35        35.3115   41.6364   20.1029 H           1 L04       0.0502
     88 H36        33.6442   42.7296   18.7128 H           1 L04       0.0577
     89 H37        31.3892   41.8164   18.5391 H           1 L04       0.0487
     90 H38        30.8346   39.7517   19.7044 H           1 L04       0.0577
     91 H39        32.4939   38.6271   21.0699 H           1 L04       0.0502
     92 H40        34.7542   41.9869   26.1755 H           1 L04       0.0651
     93 H41        30.7928   43.2149   28.7475 H           1 L04       0.0569
     94 H42        33.0205   43.5795   29.6748 H           1 L04       0.0635
     95 H43        34.9892   42.9293   28.4102 H           1 L04       0.0572
     96 H44        39.7157   34.5108   32.6473 H           1 L04       0.0604
     97 H45        38.8355   34.7788   30.4266 H           1 L04       0.0606
     98 H46        36.0733   37.8141   24.6702 H           1 L04       0.1883
     99 H47        34.9301   38.3945   21.2935 H           1 L04       0.2257
@<TRIPOS>BOND
     1     1    23   1
     2     1     2   1
     3     2    18   1
     4     2     3   1
     5     3    49  ar
     6     3    48  ar
     7    18     7   1
     8     7    16   1
     9     7     8   1
    10     8     9   1
    11     9    10   1
    12    10    15  ar
    13    10    11  ar
    14    11    12  ar
    15    12    13  ar
    16    13    14  ar
    17    13     5   1
    18     5    43  ar
    19     5     6  ar
    20     6    17  ar
    21    17    41  ar
    22    41    42  ar
    23    42    43  ar
    24    14    15  ar
    25    16    50   2
    26    16    45  am
    27    45    19   1
    28    19    27   1
    29    19    20   1
    30    20    21   1
    31    21     4   1
    32    21    22   1
    33    27    51   2
    34    27    46  am
    35    46    30   1
    36    30    35  ar
    37    30    31  ar
    38    31    32  ar
    39    32    33  ar
    40    33    34  ar
    41    34    35  ar
    42    23    24   1
    43    24    25   1
    44    25    44   1
    45    44    28   1
    46    44    26  am
    47    26    47   2
    48    26    29   1
    49    29    37  ar
    50    29    36  ar
    51    36    28   1
    52    36    38  ar
    53    38    39  ar
    54    39    40  ar
    55    40    37  ar
    56    41    52   1
    57     1    53   1
    58     1    54   1
    59     2    55   1
    60     4    56   1
    61     4    57   1
    62     4    58   1
    63     6    59   1
    64     7    60   1
    65     8    61   1
    66     8    62   1
    67     9    63   1
    68     9    64   1
    69    11    65   1
    70    12    66   1
    71    14    67   1
    72    15    68   1
    73    17    69   1
    74    18    70   1
    75    18    71   1
    76    19    72   1
    77    20    73   1
    78    20    74   1
    79    21    75   1
    80    22    76   1
    81    22    77   1
    82    22    78   1
    83    23    79   1
    84    23    80   1
    85    24    81   1
    86    24    82   1
    87    25    83   1
    88    25    84   1
    89    28    85   1
    90    28    86   1
    91    31    87   1
    92    32    88   1
    93    33    89   1
    94    34    90   1
    95    35    91   1
    96    37    92   1
    97    38    93   1
    98    39    94   1
    99    40    95   1
   100    42    96   1
   101    43    97   1
   102    45    98   1
   103    46    99   1
@<TRIPOS>SUBSTRUCTURE
     1  L04      1

