@<TRIPOS>MOLECULE
1hfs_ligand_062
    99   103
SMALL
GAST_HUCK
****
This file was generated by PARSER (from files_GN.cpp)

@<TRIPOS>ATOM
      1 C1         33.1817   35.3162   23.5952 C.3         1 L04      -0.0384
      2 C2         32.8391   36.8016   23.9446 C.3         1 L04       0.0141
      3 C3         32.4635   36.9350   25.3772 C.2         1 L04       0.0380
      4 C4         34.3856   39.9087   25.6305 C.3         1 L04      -0.0625
      5 C5         31.8255   40.2887   14.5152 C.ar        1 L04      -0.0257
      6 C6         31.4100   41.4739   13.8573 C.ar        1 L04      -0.0571
      7 C7         32.2007   38.5013   21.9562 C.3         1 L04       0.0523
      8 C8         30.9668   38.9448   21.0778 C.3         1 L04      -0.0232
      9 C9         31.0390   40.2421   20.1985 C.3         1 L04      -0.0166
     10 C10        31.4660   40.1426   18.7743 C.ar        1 L04      -0.0424
     11 C11        32.1176   41.2299   18.1402 C.ar        1 L04      -0.0596
     12 C12        32.2721   41.2680   16.7420 C.ar        1 L04      -0.0610
     13 C13        31.7976   40.2058   15.9336 C.ar        1 L04      -0.0267
     14 C14        31.1958   39.0925   16.5674 C.ar        1 L04      -0.0610
     15 C15        31.0209   39.0688   17.9647 C.ar        1 L04      -0.0596
     16 C16        32.8579   39.6422   22.6327 C.2         1 L04       0.1816
     17 C17        31.3747   41.5450   12.4526 C.ar        1 L04      -0.0282
     18 C18        31.7345   37.4295   23.0105 C.3         1 L04      -0.0186
     19 C19        34.6953   41.3225   22.4908 C.3         1 L04       0.1369
     20 C20        34.4953   41.8821   23.9474 C.3         1 L04      -0.0096
     21 C21        35.1497   41.1777   25.1854 C.3         1 L04      -0.0425
     22 C22        36.6724   40.8699   25.0574 C.3         1 L04      -0.0625
     23 C23        34.2986   34.6341   24.4474 C.3         1 L04      -0.0495
     24 C24        35.6081   35.4656   24.5824 C.3         1 L04      -0.0323
     25 C25        36.8565   34.6305   24.9738 C.3         1 L04       0.0356
     26 C26        36.7548   32.5218   26.2455 C.2         1 L04       0.2046
     27 C27        36.0958   41.3881   22.0620 C.2         1 L04       0.2292
     28 C28        36.6621   34.4388   27.4920 C.3         1 L04       0.0703
     29 C29        36.7497   32.1107   27.5408 C.ar        1 L04       0.0535
     30 C30        38.0038   40.2436   20.9804 C.ar        1 L04       0.0663
     31 C31        38.3668   38.9334   20.5935 C.ar        1 L04      -0.0413
     32 C32        39.6677   38.6438   20.1276 C.ar        1 L04      -0.0755
     33 C33        40.6413   39.6532   20.0869 C.ar        1 L04      -0.0772
     34 C34        40.3187   40.9459   20.5251 C.ar        1 L04      -0.0755
     35 C35        39.0097   41.2479   20.9593 C.ar        1 L04      -0.0413
     36 C36        36.7039   33.2490   28.3416 C.ar        1 L04      -0.0003
     37 C37        36.8196   30.8247   28.1133 C.ar        1 L04      -0.0484
     38 C38        36.7295   33.1424   29.7461 C.ar        1 L04      -0.0524
     39 C39        36.7967   31.8599   30.3318 C.ar        1 L04      -0.0641
     40 C40        36.8424   30.7063   29.5186 C.ar        1 L04      -0.0630
     41 C41        31.7643   40.4338   11.6803 C.ar        1 L04       0.1322
     42 C42        32.1769   39.2505   12.3198 C.ar        1 L04      -0.0282
     43 C43        32.2050   39.1759   13.7253 C.ar        1 L04      -0.0571
     44 N1         36.7263   33.8494   26.1815 N.am        1 L04      -0.2613
     45 N18        34.0635   40.0389   22.2359 N.am        1 L04      -0.2649
     46 N29        36.7097   40.3979   21.4060 N.am        1 L04      -0.2320
     47 O1         36.8376   31.7530   25.2955 O.2         1 L04      -0.3882
     48 O4         33.3659   37.3373   26.2941 O.co2       1 L04      -0.5687
     49 O5         31.2364   36.5711   25.8109 O.co2       1 L04      -0.5687
     50 O17        32.2115   40.2836   23.4481 O.2         1 L04      -0.3966
     51 O28        36.7212   42.3908   22.4081 O.2         1 L04      -0.3823
     52 F1         31.7369   40.5000   10.3800 F           1 L04      -0.1835
     53 H1         32.2769   34.7099   23.7019 H           1 L04       0.0286
     54 H2         33.4903   35.2749   22.5427 H           1 L04       0.0286
     55 H3         33.7576   37.3664   23.7854 H           1 L04       0.0467
     56 H4         34.6751   39.6309   26.6448 H           1 L04       0.0232
     57 H5         34.6358   39.0813   24.9708 H           1 L04       0.0232
     58 H6         33.3034   40.0772   25.6147 H           1 L04       0.0232
     59 H7         31.0997   42.2864   14.3980 H           1 L04       0.0606
     60 H8         32.9159   38.0171   21.2782 H           1 L04       0.0541
     61 H9         30.1265   39.1107   21.7669 H           1 L04       0.0315
     62 H10        30.6798   38.1023   20.4347 H           1 L04       0.0315
     63 H11        31.6334   41.0025   20.7096 H           1 L04       0.0430
     64 H12        30.0282   40.6552   20.1516 H           1 L04       0.0430
     65 H13        32.4323   42.0363   18.6885 H           1 L04       0.0559
     66 H14        32.7004   42.0932   16.3124 H           1 L04       0.0604
     67 H15        30.8181   38.3169   16.0106 H           1 L04       0.0604
     68 H16        30.4989   38.2890   18.3762 H           1 L04       0.0559
     69 H17        31.0575   42.4014   11.9936 H           1 L04       0.0604
     70 H18        30.9568   37.8993   23.6249 H           1 L04       0.0313
     71 H19        31.2359   36.6063   22.4836 H           1 L04       0.0313
     72 H20        34.1682   42.0168   21.8271 H           1 L04       0.0805
     73 H21        33.4194   41.9499   24.1497 H           1 L04       0.0315
     74 H22        34.8399   42.9255   23.9565 H           1 L04       0.0315
     75 H23        35.0566   41.8877   26.0175 H           1 L04       0.0298
     76 H24        37.2193   41.7417   24.6892 H           1 L04       0.0232
     77 H25        36.8489   40.0367   24.3741 H           1 L04       0.0232
     78 H26        37.0770   40.5898   26.0323 H           1 L04       0.0232
     79 H27        34.5347   33.6766   23.9694 H           1 L04       0.0267
     80 H28        33.9144   34.4137   25.4492 H           1 L04       0.0267
     81 H29        35.4664   36.2535   25.3293 H           1 L04       0.0285
     82 H30        35.8237   35.9500   23.6239 H           1 L04       0.0285
     83 H31        37.6992   35.3147   25.1062 H           1 L04       0.0523
     84 H32        37.1106   33.9964   24.1192 H           1 L04       0.0523
     85 H33        35.7323   34.9934   27.6493 H           1 L04       0.0699
     86 H34        37.5267   35.0787   27.6855 H           1 L04       0.0699
     87 H35        37.6733   38.1795   20.6019 H           1 L04       0.0502
     88 H36        39.9063   37.6905   19.8360 H           1 L04       0.0577
     89 H37        41.5901   39.4343   19.7696 H           1 L04       0.0487
     90 H38        41.0310   41.6822   20.5061 H           1 L04       0.0577
     91 H39        38.8212   42.1976   21.2742 H           1 L04       0.0502
     92 H40        36.8663   29.9898   27.5233 H           1 L04       0.0651
     93 H41        36.7061   33.9797   30.3321 H           1 L04       0.0569
     94 H42        36.8293   31.7655   31.3491 H           1 L04       0.0635
     95 H43        36.8987   29.7799   29.9509 H           1 L04       0.0572
     96 H44        32.4526   38.4384   11.7642 H           1 L04       0.0604
     97 H45        32.5050   38.3024   14.1695 H           1 L04       0.0606
     98 H46        34.5088   39.4537   21.6081 H           1 L04       0.1883
     99 H47        36.1372   39.6479   21.1818 H           1 L04       0.2257
@<TRIPOS>BOND
     1     1    23   1
     2     1     2   1
     3     2    18   1
     4     2     3   1
     5     3    49  ar
     6     3    48  ar
     7    18     7   1
     8     7    16   1
     9     7     8   1
    10     8     9   1
    11     9    10   1
    12    10    15  ar
    13    10    11  ar
    14    11    12  ar
    15    12    13  ar
    16    13    14  ar
    17    13     5   1
    18     5    43  ar
    19     5     6  ar
    20     6    17  ar
    21    17    41  ar
    22    41    42  ar
    23    42    43  ar
    24    14    15  ar
    25    16    50   2
    26    16    45  am
    27    45    19   1
    28    19    27   1
    29    19    20   1
    30    20    21   1
    31    21     4   1
    32    21    22   1
    33    27    51   2
    34    27    46  am
    35    46    30   1
    36    30    35  ar
    37    30    31  ar
    38    31    32  ar
    39    32    33  ar
    40    33    34  ar
    41    34    35  ar
    42    23    24   1
    43    24    25   1
    44    25    44   1
    45    44    28   1
    46    44    26  am
    47    26    47   2
    48    26    29   1
    49    29    37  ar
    50    29    36  ar
    51    36    28   1
    52    36    38  ar
    53    38    39  ar
    54    39    40  ar
    55    40    37  ar
    56    41    52   1
    57     1    53   1
    58     1    54   1
    59     2    55   1
    60     4    56   1
    61     4    57   1
    62     4    58   1
    63     6    59   1
    64     7    60   1
    65     8    61   1
    66     8    62   1
    67     9    63   1
    68     9    64   1
    69    11    65   1
    70    12    66   1
    71    14    67   1
    72    15    68   1
    73    17    69   1
    74    18    70   1
    75    18    71   1
    76    19    72   1
    77    20    73   1
    78    20    74   1
    79    21    75   1
    80    22    76   1
    81    22    77   1
    82    22    78   1
    83    23    79   1
    84    23    80   1
    85    24    81   1
    86    24    82   1
    87    25    83   1
    88    25    84   1
    89    28    85   1
    90    28    86   1
    91    31    87   1
    92    32    88   1
    93    33    89   1
    94    34    90   1
    95    35    91   1
    96    37    92   1
    97    38    93   1
    98    39    94   1
    99    40    95   1
   100    42    96   1
   101    43    97   1
   102    45    98   1
   103    46    99   1
@<TRIPOS>SUBSTRUCTURE
     1  L04      1

