@<TRIPOS>MOLECULE
1hfs_ligand_006
    99   103
SMALL
GAST_HUCK
****
This file was generated by PARSER (from files_GN.cpp)

@<TRIPOS>ATOM
      1 C1         30.7400   36.9790   23.3680 C.3         1 L04      -0.0384
      2 C2         32.0665   36.3741   23.9652 C.3         1 L04       0.0141
      3 C3         32.0833   36.5397   25.4423 C.2         1 L04       0.0380
      4 C4         39.0456   40.1616   20.3116 C.3         1 L04      -0.0625
      5 C5         37.9974   31.4681   29.2032 C.ar        1 L04      -0.0257
      6 C6         37.2091   30.4201   29.7354 C.ar        1 L04      -0.0571
      7 C7         34.7559   36.6439   23.8317 C.3         1 L04       0.0523
      8 C8         34.9973   35.2312   24.4740 C.3         1 L04      -0.0232
      9 C9         36.4705   35.0354   24.9708 C.3         1 L04      -0.0166
     10 C10        36.6759   34.1198   26.1261 C.ar        1 L04      -0.0424
     11 C11        36.4962   32.7245   25.9907 C.ar        1 L04      -0.0596
     12 C12        36.8834   31.8543   27.0286 C.ar        1 L04      -0.0610
     13 C13        37.4833   32.3490   28.2116 C.ar        1 L04      -0.0267
     14 C14        37.5992   33.7496   28.3628 C.ar        1 L04      -0.0610
     15 C15        37.2106   34.6238   27.3369 C.ar        1 L04      -0.0596
     16 C16        35.7942   36.9252   22.8325 C.2         1 L04       0.1816
     17 C17        37.7319   29.5478   30.7068 C.ar        1 L04      -0.0282
     18 C18        33.3339   36.9221   23.2210 C.3         1 L04      -0.0186
     19 C19        38.0801   37.7303   22.3940 C.3         1 L04       0.1369
     20 C20        38.6764   39.1412   22.6817 C.3         1 L04      -0.0096
     21 C21        39.7235   39.6418   21.6275 C.3         1 L04      -0.0425
     22 C22        40.6208   40.7665   22.2312 C.3         1 L04      -0.0625
     23 C23        30.3740   38.3902   23.9367 C.3         1 L04      -0.0495
     24 C24        29.4657   39.2934   23.0506 C.3         1 L04      -0.0323
     25 C25        29.6018   40.8092   23.4116 C.3         1 L04       0.0356
     26 C26        31.5103   41.4312   21.9993 C.2         1 L04       0.2046
     27 C27        39.0391   36.6640   22.6893 C.2         1 L04       0.2292
     28 C28        31.8506   41.6360   24.2589 C.3         1 L04       0.0703
     29 C29        32.8351   41.6707   22.1491 C.ar        1 L04       0.0535
     30 C30        40.4559   34.9134   21.6601 C.ar        1 L04       0.0663
     31 C31        41.2584   34.4697   22.7435 C.ar        1 L04      -0.0413
     32 C32        42.2034   33.4383   22.5706 C.ar        1 L04      -0.0755
     33 C33        42.3562   32.8215   21.3150 C.ar        1 L04      -0.0772
     34 C34        41.5667   33.2467   20.2311 C.ar        1 L04      -0.0755
     35 C35        40.6332   34.2846   20.4074 C.ar        1 L04      -0.0413
     36 C36        33.1019   41.7642   23.5135 C.ar        1 L04      -0.0003
     37 C37        33.8788   41.7555   21.2031 C.ar        1 L04      -0.0484
     38 C38        34.4171   41.9224   23.9839 C.ar        1 L04      -0.0524
     39 C39        35.4717   41.9832   23.0503 C.ar        1 L04      -0.0641
     40 C40        35.2037   41.9146   21.6643 C.ar        1 L04      -0.0630
     41 C41        39.0524   29.7116   31.1661 C.ar        1 L04       0.1322
     42 C42        39.8490   30.7486   30.6463 C.ar        1 L04      -0.0282
     43 C43        39.3254   31.6153   29.6728 C.ar        1 L04      -0.0571
     44 N1         30.9339   41.3184   23.1925 N.am        1 L04      -0.2613
     45 N18        36.8945   37.5803   23.1859 N.am        1 L04      -0.2649
     46 N29        39.5198   35.9193   21.6959 N.am        1 L04      -0.2320
     47 O1         30.9778   41.2387   20.9121 O.2         1 L04      -0.3882
     48 O4         33.0450   37.2614   26.0628 O.co2       1 L04      -0.5687
     49 O5         30.9880   36.1824   26.1515 O.co2       1 L04      -0.5687
     50 O17        35.7075   36.3953   21.7318 O.2         1 L04      -0.3966
     51 O28        39.3634   36.4772   23.8565 O.2         1 L04      -0.3823
     52 F1         39.5346   28.9035   32.0757 F           1 L04      -0.1835
     53 H1         30.8276   37.0473   22.2745 H           1 L04       0.0286
     54 H2         29.8996   36.2990   23.5751 H           1 L04       0.0286
     55 H3         32.0372   35.2951   23.7669 H           1 L04       0.0467
     56 H4         39.7996   40.5857   19.6261 H           1 L04       0.0232
     57 H5         38.3093   40.9414   20.5634 H           1 L04       0.0232
     58 H6         38.5413   39.3318   19.7933 H           1 L04       0.0232
     59 H7         36.2449   30.2966   29.4284 H           1 L04       0.0606
     60 H8         34.8660   37.3553   24.6645 H           1 L04       0.0541
     61 H9         34.7545   34.4500   23.7467 H           1 L04       0.0315
     62 H10        34.3224   35.1125   25.3265 H           1 L04       0.0315
     63 H11        36.8893   36.0173   25.2388 H           1 L04       0.0430
     64 H12        37.0741   34.6738   24.1262 H           1 L04       0.0430
     65 H13        36.1191   32.3387   25.1174 H           1 L04       0.0559
     66 H14        36.7849   30.8489   26.8737 H           1 L04       0.0604
     67 H15        38.0071   34.1508   29.2108 H           1 L04       0.0604
     68 H16        37.3480   35.6303   27.4695 H           1 L04       0.0559
     69 H17        37.1463   28.7948   31.0793 H           1 L04       0.0604
     70 H18        33.2429   38.0117   23.1323 H           1 L04       0.0313
     71 H19        33.2907   36.5257   22.2021 H           1 L04       0.0313
     72 H20        37.7866   37.7108   21.3455 H           1 L04       0.0805
     73 H21        39.1454   39.1407   23.6767 H           1 L04       0.0315
     74 H22        37.8703   39.8860   22.7221 H           1 L04       0.0315
     75 H23        40.3952   38.8109   21.3510 H           1 L04       0.0298
     76 H24        41.2099   40.3649   23.0759 H           1 L04       0.0232
     77 H25        39.9960   41.6005   22.5942 H           1 L04       0.0232
     78 H26        41.3257   41.1503   21.4718 H           1 L04       0.0232
     79 H27        31.3104   38.9137   24.1116 H           1 L04       0.0267
     80 H28        29.8789   38.2661   24.9131 H           1 L04       0.0267
     81 H29        28.4238   38.9822   23.1811 H           1 L04       0.0285
     82 H30        29.7210   39.1497   21.9993 H           1 L04       0.0285
     83 H31        29.3151   40.9361   24.4587 H           1 L04       0.0523
     84 H32        28.8894   41.3850   22.8142 H           1 L04       0.0523
     85 H33        31.9294   40.8400   24.9970 H           1 L04       0.0699
     86 H34        31.5832   42.5739   24.7470 H           1 L04       0.0699
     87 H35        41.1876   34.8885   23.6682 H           1 L04       0.0502
     88 H36        42.7886   33.1372   23.3549 H           1 L04       0.0577
     89 H37        43.0393   32.0683   21.1905 H           1 L04       0.0487
     90 H38        41.6797   32.8006   19.3152 H           1 L04       0.0577
     91 H39        40.0806   34.5785   19.5974 H           1 L04       0.0502
     92 H40        33.6879   41.6858   20.2009 H           1 L04       0.0651
     93 H41        34.6079   41.9665   24.9892 H           1 L04       0.0569
     94 H42        36.4402   42.0848   23.3740 H           1 L04       0.0635
     95 H43        35.9739   41.9592   20.9939 H           1 L04       0.0572
     96 H44        40.8129   30.8681   30.9745 H           1 L04       0.0604
     97 H45        39.9340   32.3475   29.3011 H           1 L04       0.0606
     98 H46        36.9365   37.9103   24.1081 H           1 L04       0.1883
     99 H47        39.1599   36.1376   20.8208 H           1 L04       0.2257
@<TRIPOS>BOND
     1     1    23   1
     2     1     2   1
     3     2    18   1
     4     2     3   1
     5     3    49  ar
     6     3    48  ar
     7    18     7   1
     8     7    16   1
     9     7     8   1
    10     8     9   1
    11     9    10   1
    12    10    15  ar
    13    10    11  ar
    14    11    12  ar
    15    12    13  ar
    16    13    14  ar
    17    13     5   1
    18     5    43  ar
    19     5     6  ar
    20     6    17  ar
    21    17    41  ar
    22    41    42  ar
    23    42    43  ar
    24    14    15  ar
    25    16    50   2
    26    16    45  am
    27    45    19   1
    28    19    27   1
    29    19    20   1
    30    20    21   1
    31    21     4   1
    32    21    22   1
    33    27    51   2
    34    27    46  am
    35    46    30   1
    36    30    35  ar
    37    30    31  ar
    38    31    32  ar
    39    32    33  ar
    40    33    34  ar
    41    34    35  ar
    42    23    24   1
    43    24    25   1
    44    25    44   1
    45    44    28   1
    46    44    26  am
    47    26    47   2
    48    26    29   1
    49    29    37  ar
    50    29    36  ar
    51    36    28   1
    52    36    38  ar
    53    38    39  ar
    54    39    40  ar
    55    40    37  ar
    56    41    52   1
    57     1    53   1
    58     1    54   1
    59     2    55   1
    60     4    56   1
    61     4    57   1
    62     4    58   1
    63     6    59   1
    64     7    60   1
    65     8    61   1
    66     8    62   1
    67     9    63   1
    68     9    64   1
    69    11    65   1
    70    12    66   1
    71    14    67   1
    72    15    68   1
    73    17    69   1
    74    18    70   1
    75    18    71   1
    76    19    72   1
    77    20    73   1
    78    20    74   1
    79    21    75   1
    80    22    76   1
    81    22    77   1
    82    22    78   1
    83    23    79   1
    84    23    80   1
    85    24    81   1
    86    24    82   1
    87    25    83   1
    88    25    84   1
    89    28    85   1
    90    28    86   1
    91    31    87   1
    92    32    88   1
    93    33    89   1
    94    34    90   1
    95    35    91   1
    96    37    92   1
    97    38    93   1
    98    39    94   1
    99    40    95   1
   100    42    96   1
   101    43    97   1
   102    45    98   1
   103    46    99   1
@<TRIPOS>SUBSTRUCTURE
     1  L04      1

