@<TRIPOS>MOLECULE
1hfs_ligand_082
    99   103
SMALL
GAST_HUCK
****
This file was generated by PARSER (from files_GN.cpp)

@<TRIPOS>ATOM
      1 C1         34.2118   38.1582   25.2581 C.3         1 L04      -0.0384
      2 C2         33.0600   39.0197   24.6261 C.3         1 L04       0.0141
      3 C3         31.7280   38.7655   25.2494 C.2         1 L04       0.0380
      4 C4         29.1416   39.7196   16.0285 C.3         1 L04      -0.0625
      5 C5         38.3600   38.1820   21.3927 C.ar        1 L04      -0.0257
      6 C6         38.2483   37.0254   22.1989 C.ar        1 L04      -0.0571
      7 C7         32.2825   40.1452   22.2910 C.3         1 L04       0.0523
      8 C8         32.8944   41.5796   22.5097 C.3         1 L04      -0.0232
      9 C9         34.0989   42.0490   21.6397 C.3         1 L04      -0.0166
     10 C10        35.2548   41.1160   21.5763 C.ar        1 L04      -0.0424
     11 C11        35.6358   40.5286   20.3486 C.ar        1 L04      -0.0596
     12 C12        36.6726   39.5818   20.2909 C.ar        1 L04      -0.0610
     13 C13        37.3737   39.2047   21.4574 C.ar        1 L04      -0.0267
     14 C14        37.0357   39.8340   22.6792 C.ar        1 L04      -0.0610
     15 C15        35.9942   40.7836   22.7361 C.ar        1 L04      -0.0596
     16 C16        32.0692   39.8716   20.8626 C.2         1 L04       0.1816
     17 C17        39.1703   35.9700   22.0700 C.ar        1 L04      -0.0282
     18 C18        32.9973   38.9575   23.0544 C.3         1 L04      -0.0186
     19 C19        30.7267   40.2680   18.8013 C.3         1 L04       0.1369
     20 C20        29.5215   39.2883   18.5879 C.3         1 L04      -0.0096
     21 C21        29.2893   38.6704   17.1634 C.3         1 L04      -0.0425
     22 C22        30.3417   37.5883   16.7913 C.3         1 L04      -0.0625
     23 C23        34.1744   36.6148   25.0300 C.3         1 L04      -0.0495
     24 C24        35.2260   35.8777   25.9116 C.3         1 L04      -0.0323
     25 C25        35.0846   34.3292   25.9191 C.3         1 L04       0.0356
     26 C26        37.0186   33.9511   27.4841 C.2         1 L04       0.2046
     27 C27        30.5062   41.6099   18.2619 C.2         1 L04       0.2292
     28 C28        35.8662   32.1119   26.7778 C.3         1 L04       0.0703
     29 C29        37.6463   32.8812   28.0532 C.ar        1 L04       0.0535
     30 C30        29.1169   43.5588   18.1289 C.ar        1 L04       0.0663
     31 C31        29.4305   44.7117   18.8811 C.ar        1 L04      -0.0413
     32 C32        29.0927   45.9912   18.4013 C.ar        1 L04      -0.0755
     33 C33        28.4168   46.1275   17.1757 C.ar        1 L04      -0.0772
     34 C34        28.0868   44.9849   16.4248 C.ar        1 L04      -0.0755
     35 C35        28.4349   43.7051   16.8995 C.ar        1 L04      -0.0413
     36 C36        36.9758   31.7320   27.6518 C.ar        1 L04      -0.0003
     37 C37        38.7772   32.7980   28.8921 C.ar        1 L04      -0.0484
     38 C38        37.4054   30.4570   28.0753 C.ar        1 L04      -0.0524
     39 C39        38.5373   30.3624   28.9120 C.ar        1 L04      -0.0641
     40 C40        39.2231   31.5282   29.3164 C.ar        1 L04      -0.0630
     41 C41        40.2207   36.0607   21.1388 C.ar        1 L04       0.1322
     42 C42        40.3509   37.2118   20.3376 C.ar        1 L04      -0.0282
     43 C43        39.4262   38.2647   20.4629 C.ar        1 L04      -0.0571
     44 N1         35.9972   33.5465   26.7302 N.am        1 L04      -0.2613
     45 N18        31.0315   40.3961   20.2111 N.am        1 L04      -0.2649
     46 N29        29.4346   42.3220   18.6072 N.am        1 L04      -0.2320
     47 O1         37.3968   35.0982   27.6623 O.2         1 L04      -0.3882
     48 O4         31.5610   37.8397   26.2221 O.co2       1 L04      -0.5687
     49 O5         30.7371   39.6803   25.1233 O.co2       1 L04      -0.5687
     50 O17        32.8610   39.1484   20.2729 O.2         1 L04      -0.3966
     51 O28        31.3480   42.0907   17.5085 O.2         1 L04      -0.3823
     52 F1         41.0681   35.0770   21.0096 F           1 L04      -0.1835
     53 H1         35.1688   38.5297   24.8823 H           1 L04       0.0286
     54 H2         34.2007   38.3486   26.3379 H           1 L04       0.0286
     55 H3         33.3213   40.0385   24.9199 H           1 L04       0.0467
     56 H4         28.8072   39.2385   15.1060 H           1 L04       0.0232
     57 H5         30.0891   40.2255   15.8312 H           1 L04       0.0232
     58 H6         28.3913   40.4592   16.3063 H           1 L04       0.0232
     59 H7         37.4742   36.9255   22.8627 H           1 L04       0.0606
     60 H8         31.2829   40.1740   22.7243 H           1 L04       0.0541
     61 H9         33.1736   41.7157   23.5508 H           1 L04       0.0315
     62 H10        32.0949   42.3039   22.3387 H           1 L04       0.0315
     63 H11        34.4639   43.0046   22.0269 H           1 L04       0.0430
     64 H12        33.7246   42.2540   20.6333 H           1 L04       0.0430
     65 H13        35.1395   40.7615   19.4853 H           1 L04       0.0559
     66 H14        36.8951   39.1523   19.3865 H           1 L04       0.0604
     67 H15        37.5410   39.5997   23.5393 H           1 L04       0.0604
     68 H16        35.7627   41.2090   23.6358 H           1 L04       0.0559
     69 H17        39.0647   35.1313   22.6455 H           1 L04       0.0604
     70 H18        32.4913   38.0187   22.7862 H           1 L04       0.0313
     71 H19        34.0148   38.8625   22.6727 H           1 L04       0.0313
     72 H20        31.5849   39.8261   18.2820 H           1 L04       0.0805
     73 H21        28.5982   39.7833   18.8953 H           1 L04       0.0315
     74 H22        29.6487   38.4470   19.2767 H           1 L04       0.0315
     75 H23        28.3266   38.1474   17.2079 H           1 L04       0.0298
     76 H24        30.3512   36.7972   17.5453 H           1 L04       0.0232
     77 H25        31.3408   38.0216   16.7237 H           1 L04       0.0232
     78 H26        30.0929   37.1288   15.8297 H           1 L04       0.0232
     79 H27        34.3653   36.3989   23.9734 H           1 L04       0.0267
     80 H28        33.1804   36.2293   25.2727 H           1 L04       0.0267
     81 H29        35.1154   36.2266   26.9428 H           1 L04       0.0285
     82 H30        36.2214   36.1497   25.5512 H           1 L04       0.0285
     83 H31        35.1683   33.9810   24.8853 H           1 L04       0.0523
     84 H32        34.0694   34.1012   26.2593 H           1 L04       0.0523
     85 H33        35.9886   31.6638   25.7873 H           1 L04       0.0699
     86 H34        34.9100   31.8087   27.2156 H           1 L04       0.0699
     87 H35        29.9164   44.6183   19.7755 H           1 L04       0.0502
     88 H36        29.3332   46.8213   18.9464 H           1 L04       0.0577
     89 H37        28.1641   47.0573   16.8350 H           1 L04       0.0487
     90 H38        27.5944   45.0867   15.5368 H           1 L04       0.0577
     91 H39        28.1859   42.8830   16.3492 H           1 L04       0.0502
     92 H40        39.2749   33.6422   29.1827 H           1 L04       0.0651
     93 H41        36.9160   29.6166   27.7714 H           1 L04       0.0569
     94 H42        38.8687   29.4459   29.2211 H           1 L04       0.0635
     95 H43        40.0489   31.4518   29.9149 H           1 L04       0.0572
     96 H44        41.1064   37.2806   19.6534 H           1 L04       0.0604
     97 H45        39.5314   39.0880   19.8639 H           1 L04       0.0606
     98 H46        30.4073   40.9205   20.7338 H           1 L04       0.1883
     99 H47        28.8188   41.9346   19.2539 H           1 L04       0.2257
@<TRIPOS>BOND
     1     1    23   1
     2     1     2   1
     3     2    18   1
     4     2     3   1
     5     3    49  ar
     6     3    48  ar
     7    18     7   1
     8     7    16   1
     9     7     8   1
    10     8     9   1
    11     9    10   1
    12    10    15  ar
    13    10    11  ar
    14    11    12  ar
    15    12    13  ar
    16    13    14  ar
    17    13     5   1
    18     5    43  ar
    19     5     6  ar
    20     6    17  ar
    21    17    41  ar
    22    41    42  ar
    23    42    43  ar
    24    14    15  ar
    25    16    50   2
    26    16    45  am
    27    45    19   1
    28    19    27   1
    29    19    20   1
    30    20    21   1
    31    21     4   1
    32    21    22   1
    33    27    51   2
    34    27    46  am
    35    46    30   1
    36    30    35  ar
    37    30    31  ar
    38    31    32  ar
    39    32    33  ar
    40    33    34  ar
    41    34    35  ar
    42    23    24   1
    43    24    25   1
    44    25    44   1
    45    44    28   1
    46    44    26  am
    47    26    47   2
    48    26    29   1
    49    29    37  ar
    50    29    36  ar
    51    36    28   1
    52    36    38  ar
    53    38    39  ar
    54    39    40  ar
    55    40    37  ar
    56    41    52   1
    57     1    53   1
    58     1    54   1
    59     2    55   1
    60     4    56   1
    61     4    57   1
    62     4    58   1
    63     6    59   1
    64     7    60   1
    65     8    61   1
    66     8    62   1
    67     9    63   1
    68     9    64   1
    69    11    65   1
    70    12    66   1
    71    14    67   1
    72    15    68   1
    73    17    69   1
    74    18    70   1
    75    18    71   1
    76    19    72   1
    77    20    73   1
    78    20    74   1
    79    21    75   1
    80    22    76   1
    81    22    77   1
    82    22    78   1
    83    23    79   1
    84    23    80   1
    85    24    81   1
    86    24    82   1
    87    25    83   1
    88    25    84   1
    89    28    85   1
    90    28    86   1
    91    31    87   1
    92    32    88   1
    93    33    89   1
    94    34    90   1
    95    35    91   1
    96    37    92   1
    97    38    93   1
    98    39    94   1
    99    40    95   1
   100    42    96   1
   101    43    97   1
   102    45    98   1
   103    46    99   1
@<TRIPOS>SUBSTRUCTURE
     1  L04      1

