@<TRIPOS>MOLECULE
1hfs_ligand_090
    99   103
SMALL
GAST_HUCK
****
This file was generated by PARSER (from files_GN.cpp)

@<TRIPOS>ATOM
      1 C1         35.7463   40.6253   22.5162 C.3         1 L04      -0.0384
      2 C2         36.5222   39.2934   22.1906 C.3         1 L04       0.0141
      3 C3         36.0999   38.8790   20.8189 C.2         1 L04       0.0380
      4 C4         36.4084   32.6019   27.3810 C.3         1 L04      -0.0625
      5 C5         42.7848   32.1359   21.7138 C.ar        1 L04      -0.0257
      6 C6         42.2248   30.9099   21.2703 C.ar        1 L04      -0.0571
      7 C7         36.5500   36.6263   22.8285 C.3         1 L04       0.0523
      8 C8         37.8691   35.9456   23.3205 C.3         1 L04      -0.0232
      9 C9         39.1959   36.5376   22.7383 C.3         1 L04      -0.0166
     10 C10        40.1970   35.4746   22.4414 C.ar        1 L04      -0.0424
     11 C11        41.2368   35.1655   23.3448 C.ar        1 L04      -0.0596
     12 C12        42.1029   34.0838   23.0939 C.ar        1 L04      -0.0610
     13 C13        41.9533   33.2802   21.9378 C.ar        1 L04      -0.0267
     14 C14        40.9336   33.6251   21.0180 C.ar        1 L04      -0.0610
     15 C15        40.0648   34.7001   21.2711 C.ar        1 L04      -0.0596
     16 C16        35.3989   35.8220   23.2607 C.2         1 L04       0.1816
     17 C17        43.0335   29.7801   21.0434 C.ar        1 L04      -0.0282
     18 C18        36.3816   38.1457   23.2589 C.3         1 L04      -0.0186
     19 C19        34.0433   34.9900   25.1688 C.3         1 L04       0.1369
     20 C20        34.5941   34.0640   26.3086 C.3         1 L04      -0.0096
     21 C21        36.0033   33.4135   26.1155 C.3         1 L04      -0.0425
     22 C22        36.1101   32.5194   24.8511 C.3         1 L04      -0.0625
     23 C23        35.6940   41.0993   24.0014 C.3         1 L04      -0.0495
     24 C24        34.3327   41.7227   24.4390 C.3         1 L04      -0.0323
     25 C25        33.1896   40.7008   24.7732 C.3         1 L04       0.0356
     26 C26        31.4196   41.0162   23.0839 C.2         1 L04       0.2046
     27 C27        33.0509   35.9349   25.6810 C.2         1 L04       0.2292
     28 C28        32.4632   38.9802   23.0575 C.3         1 L04       0.0703
     29 C29        30.8102   40.3067   22.0990 C.ar        1 L04       0.0535
     30 C30        30.7045   36.6764   25.6105 C.ar        1 L04       0.0663
     31 C31        30.8020   38.0219   26.0525 C.ar        1 L04      -0.0413
     32 C32        29.6577   38.8062   26.2808 C.ar        1 L04      -0.0755
     33 C33        28.3825   38.2672   26.0447 C.ar        1 L04      -0.0772
     34 C34        28.2618   36.9555   25.5600 C.ar        1 L04      -0.0755
     35 C35        29.4121   36.1747   25.3343 C.ar        1 L04      -0.0413
     36 C36        31.4234   39.0593   22.0427 C.ar        1 L04      -0.0003
     37 C37        29.7618   40.6183   21.2136 C.ar        1 L04      -0.0484
     38 C38        31.0421   38.0927   21.0915 C.ar        1 L04      -0.0524
     39 C39        29.9988   38.4038   20.1946 C.ar        1 L04      -0.0641
     40 C40        29.3552   39.6585   20.2622 C.ar        1 L04      -0.0630
     41 C41        44.4202   29.8507   21.2607 C.ar        1 L04       0.1322
     42 C42        44.9948   31.0534   21.7082 C.ar        1 L04      -0.0282
     43 C43        44.1857   32.1829   21.9335 C.ar        1 L04      -0.0571
     44 N1         32.3820   40.2880   23.6440 N.am        1 L04      -0.2613
     45 N18        35.0934   35.7572   24.5530 N.am        1 L04      -0.2649
     46 N29        31.7606   35.8248   25.3691 N.am        1 L04      -0.2320
     47 O1         31.0882   42.1498   23.4061 O.2         1 L04      -0.3882
     48 O4         36.8114   39.2500   19.7203 O.co2       1 L04      -0.5687
     49 O5         34.8631   38.3469   20.6154 O.co2       1 L04      -0.5687
     50 O17        34.7412   35.2299   22.4126 O.2         1 L04      -0.3966
     51 O28        33.4538   36.8342   26.4119 O.2         1 L04      -0.3823
     52 F1         45.1677   28.8040   21.0484 F           1 L04      -0.1835
     53 H1         36.1898   41.4263   21.9146 H           1 L04       0.0286
     54 H2         34.7173   40.5426   22.1566 H           1 L04       0.0286
     55 H3         37.5866   39.5397   22.1213 H           1 L04       0.0467
     56 H4         37.4356   32.2413   27.2878 H           1 L04       0.0232
     57 H5         35.7460   31.7435   27.5181 H           1 L04       0.0232
     58 H6         36.3538   33.2301   28.2723 H           1 L04       0.0232
     59 H7         41.2150   30.8216   21.1207 H           1 L04       0.0606
     60 H8         36.5990   36.5674   21.7394 H           1 L04       0.0541
     61 H9         37.8058   34.8785   23.0540 H           1 L04       0.0315
     62 H10        37.9149   35.9887   24.4183 H           1 L04       0.0315
     63 H11        39.5953   37.2628   23.4545 H           1 L04       0.0430
     64 H12        38.9873   37.0916   21.8189 H           1 L04       0.0430
     65 H13        41.3526   35.7055   24.2036 H           1 L04       0.0559
     66 H14        42.8219   33.8645   23.7861 H           1 L04       0.0604
     67 H15        40.8113   33.0910   20.1562 H           1 L04       0.0604
     68 H16        39.3225   34.9021   20.5995 H           1 L04       0.0559
     69 H17        42.6063   28.9102   20.7201 H           1 L04       0.0604
     70 H18        35.4148   38.2985   23.7339 H           1 L04       0.0313
     71 H19        37.1027   38.3525   24.0471 H           1 L04       0.0313
     72 H20        33.5678   34.3330   24.4323 H           1 L04       0.0805
     73 H21        33.8626   33.2668   26.4794 H           1 L04       0.0315
     74 H22        34.6462   34.6436   27.2356 H           1 L04       0.0315
     75 H23        36.7370   34.2185   26.0140 H           1 L04       0.0298
     76 H24        35.9247   33.1048   23.9456 H           1 L04       0.0232
     77 H25        35.3839   31.7043   24.8963 H           1 L04       0.0232
     78 H26        37.1164   32.0931   24.7746 H           1 L04       0.0232
     79 H27        36.4884   41.8448   24.1406 H           1 L04       0.0267
     80 H28        35.9154   40.2625   24.6762 H           1 L04       0.0267
     81 H29        33.9819   42.4383   23.6832 H           1 L04       0.0285
     82 H30        34.5267   42.2971   25.3553 H           1 L04       0.0285
     83 H31        32.5273   41.1581   25.5203 H           1 L04       0.0523
     84 H32        33.6346   39.8264   25.2672 H           1 L04       0.0523
     85 H33        32.2483   38.1867   23.7718 H           1 L04       0.0699
     86 H34        33.4202   38.7957   22.5808 H           1 L04       0.0699
     87 H35        31.7044   38.4663   26.2059 H           1 L04       0.0502
     88 H36        29.7536   39.7705   26.6122 H           1 L04       0.0577
     89 H37        27.5485   38.8311   26.2214 H           1 L04       0.0487
     90 H38        27.3368   36.5695   25.3762 H           1 L04       0.0577
     91 H39        29.2953   35.2242   24.9829 H           1 L04       0.0502
     92 H40        29.3018   41.5297   21.2569 H           1 L04       0.0651
     93 H41        31.5243   37.1858   21.0445 H           1 L04       0.0569
     94 H42        29.7103   37.7146   19.4981 H           1 L04       0.0635
     95 H43        28.5953   39.8718   19.6147 H           1 L04       0.0572
     96 H44        46.0024   31.1122   21.8661 H           1 L04       0.0604
     97 H45        44.6323   33.0492   22.2452 H           1 L04       0.0606
     98 H46        35.6483   36.2825   25.1541 H           1 L04       0.1883
     99 H47        31.5186   34.9801   24.9550 H           1 L04       0.2257
@<TRIPOS>BOND
     1     1    23   1
     2     1     2   1
     3     2    18   1
     4     2     3   1
     5     3    49  ar
     6     3    48  ar
     7    18     7   1
     8     7    16   1
     9     7     8   1
    10     8     9   1
    11     9    10   1
    12    10    15  ar
    13    10    11  ar
    14    11    12  ar
    15    12    13  ar
    16    13    14  ar
    17    13     5   1
    18     5    43  ar
    19     5     6  ar
    20     6    17  ar
    21    17    41  ar
    22    41    42  ar
    23    42    43  ar
    24    14    15  ar
    25    16    50   2
    26    16    45  am
    27    45    19   1
    28    19    27   1
    29    19    20   1
    30    20    21   1
    31    21     4   1
    32    21    22   1
    33    27    51   2
    34    27    46  am
    35    46    30   1
    36    30    35  ar
    37    30    31  ar
    38    31    32  ar
    39    32    33  ar
    40    33    34  ar
    41    34    35  ar
    42    23    24   1
    43    24    25   1
    44    25    44   1
    45    44    28   1
    46    44    26  am
    47    26    47   2
    48    26    29   1
    49    29    37  ar
    50    29    36  ar
    51    36    28   1
    52    36    38  ar
    53    38    39  ar
    54    39    40  ar
    55    40    37  ar
    56    41    52   1
    57     1    53   1
    58     1    54   1
    59     2    55   1
    60     4    56   1
    61     4    57   1
    62     4    58   1
    63     6    59   1
    64     7    60   1
    65     8    61   1
    66     8    62   1
    67     9    63   1
    68     9    64   1
    69    11    65   1
    70    12    66   1
    71    14    67   1
    72    15    68   1
    73    17    69   1
    74    18    70   1
    75    18    71   1
    76    19    72   1
    77    20    73   1
    78    20    74   1
    79    21    75   1
    80    22    76   1
    81    22    77   1
    82    22    78   1
    83    23    79   1
    84    23    80   1
    85    24    81   1
    86    24    82   1
    87    25    83   1
    88    25    84   1
    89    28    85   1
    90    28    86   1
    91    31    87   1
    92    32    88   1
    93    33    89   1
    94    34    90   1
    95    35    91   1
    96    37    92   1
    97    38    93   1
    98    39    94   1
    99    40    95   1
   100    42    96   1
   101    43    97   1
   102    45    98   1
   103    46    99   1
@<TRIPOS>SUBSTRUCTURE
     1  L04      1

