@<TRIPOS>MOLECULE
1hfs_ligand_070
    99   103
SMALL
GAST_HUCK
****
This file was generated by PARSER (from files_GN.cpp)

@<TRIPOS>ATOM
      1 C1         33.6421   41.6097   19.5702 C.3         1 L04      -0.0384
      2 C2         33.3286   40.9342   20.9724 C.3         1 L04       0.0141
      3 C3         33.3223   41.9445   22.0635 C.2         1 L04       0.0380
      4 C4         28.0078   37.3701   25.5664 C.3         1 L04      -0.0625
      5 C5         41.0908   36.4020   21.8991 C.ar        1 L04      -0.0257
      6 C6         41.9114   36.1471   23.0247 C.ar        1 L04      -0.0571
      7 C7         33.5070   38.3591   21.6361 C.3         1 L04       0.0523
      8 C8         34.4668   37.1274   21.4730 C.3         1 L04      -0.0232
      9 C9         35.4084   36.8199   22.6867 C.3         1 L04      -0.0166
     10 C10        36.8552   36.6432   22.3779 C.ar        1 L04      -0.0424
     11 C11        37.5754   37.6778   21.7423 C.ar        1 L04      -0.0596
     12 C12        38.9656   37.5874   21.5613 C.ar        1 L04      -0.0610
     13 C13        39.6798   36.4609   22.0301 C.ar        1 L04      -0.0267
     14 C14        38.9624   35.4171   22.6558 C.ar        1 L04      -0.0610
     15 C15        37.5671   35.5000   22.8175 C.ar        1 L04      -0.0596
     16 C16        32.8003   38.3194   22.9272 C.2         1 L04       0.1816
     17 C17        43.3121   36.1258   22.8989 C.ar        1 L04      -0.0282
     18 C18        34.2612   39.7083   21.3362 C.3         1 L04      -0.0186
     19 C19        31.5611   36.9021   24.5411 C.3         1 L04       0.1369
     20 C20        30.1076   36.3495   24.4129 C.3         1 L04      -0.0096
     21 C21        28.9207   37.3850   24.3049 C.3         1 L04      -0.0425
     22 C22        29.2972   38.8595   23.9811 C.3         1 L04      -0.0625
     23 C23        32.5917   41.5782   18.4047 C.3         1 L04      -0.0495
     24 C24        31.2673   40.7660   18.5655 C.3         1 L04      -0.0323
     25 C25        30.2086   41.4875   19.4465 C.3         1 L04       0.0356
     26 C26        28.4414   40.6632   20.9445 C.2         1 L04       0.2046
     27 C27        32.4994   35.9661   25.1594 C.2         1 L04       0.2292
     28 C28        28.3822   39.8316   18.8113 C.3         1 L04       0.0703
     29 C29        27.3397   39.8700   20.8928 C.ar        1 L04       0.0535
     30 C30        34.0989   34.1296   24.7974 C.ar        1 L04       0.0663
     31 C31        34.7850   34.0806   26.0403 C.ar        1 L04      -0.0413
     32 C32        35.8633   33.2012   26.2424 C.ar        1 L04      -0.0755
     33 C33        36.2737   32.3440   25.2096 C.ar        1 L04      -0.0772
     34 C34        35.5882   32.3514   23.9841 C.ar        1 L04      -0.0755
     35 C35        34.5069   33.2335   23.7836 C.ar        1 L04      -0.0413
     36 C36        27.2849   39.3083   19.6218 C.ar        1 L04      -0.0003
     37 C37        26.3725   39.5630   21.8675 C.ar        1 L04      -0.0484
     38 C38        26.2988   38.3565   19.3034 C.ar        1 L04      -0.0524
     39 C39        25.3651   37.9879   20.2937 C.ar        1 L04      -0.0641
     40 C40        25.3874   38.6037   21.5646 C.ar        1 L04      -0.0630
     41 C41        43.9117   36.3465   21.6448 C.ar        1 L04       0.1322
     42 C42        43.1060   36.5868   20.5162 C.ar        1 L04      -0.0282
     43 C43        41.7058   36.6215   20.6435 C.ar        1 L04      -0.0571
     44 N1         29.0586   40.6732   19.7659 N.am        1 L04      -0.2613
     45 N18        32.0659   37.2593   23.2387 N.am        1 L04      -0.2649
     46 N29        33.0816   34.9997   24.4622 N.am        1 L04      -0.2320
     47 O1         28.8065   41.2341   21.9626 O.2         1 L04      -0.3882
     48 O4         34.4418   42.6539   22.3512 O.co2       1 L04      -0.5687
     49 O5         32.2167   42.1356   22.8198 O.co2       1 L04      -0.5687
     50 O17        32.9966   39.1901   23.7653 O.2         1 L04      -0.3966
     51 O28        32.7779   36.1842   26.3360 O.2         1 L04      -0.3823
     52 F1         45.2123   36.3303   21.5294 F           1 L04      -0.1835
     53 H1         33.9054   42.6590   19.7234 H           1 L04       0.0286
     54 H2         34.5613   41.1857   19.1591 H           1 L04       0.0286
     55 H3         32.3164   40.5384   20.9372 H           1 L04       0.0467
     56 H4         27.1303   38.0047   25.4244 H           1 L04       0.0232
     57 H5         28.5599   37.7314   26.4349 H           1 L04       0.0232
     58 H6         27.6531   36.3592   25.7742 H           1 L04       0.0232
     59 H7         41.4969   35.9961   23.9494 H           1 L04       0.0606
     60 H8         32.7449   38.2514   20.8549 H           1 L04       0.0541
     61 H9         35.0579   37.2546   20.5648 H           1 L04       0.0315
     62 H10        33.8513   36.2400   21.2816 H           1 L04       0.0315
     63 H11        35.0190   35.9277   23.1813 H           1 L04       0.0430
     64 H12        35.3505   37.6227   23.4240 H           1 L04       0.0430
     65 H13        37.0971   38.5266   21.4313 H           1 L04       0.0559
     66 H14        39.4568   38.3695   21.1218 H           1 L04       0.0604
     67 H15        39.4525   34.5899   23.0069 H           1 L04       0.0604
     68 H16        37.0796   34.7382   23.2943 H           1 L04       0.0559
     69 H17        43.8929   35.9529   23.7234 H           1 L04       0.0604
     70 H18        34.9034   39.9461   22.1896 H           1 L04       0.0313
     71 H19        34.9514   39.5134   20.5138 H           1 L04       0.0313
     72 H20        31.5060   37.7804   25.1906 H           1 L04       0.0805
     73 H21        29.9222   35.6960   25.2693 H           1 L04       0.0315
     74 H22        30.0734   35.6905   23.5398 H           1 L04       0.0315
     75 H23        28.2843   37.0619   23.4742 H           1 L04       0.0298
     76 H24        29.8602   38.9277   23.0558 H           1 L04       0.0232
     77 H25        29.8634   39.3231   24.7850 H           1 L04       0.0232
     78 H26        28.4031   39.4589   23.8623 H           1 L04       0.0232
     79 H27        33.1054   41.1754   17.5241 H           1 L04       0.0267
     80 H28        32.3376   42.6078   18.1262 H           1 L04       0.0267
     81 H29        31.4690   39.7721   18.9691 H           1 L04       0.0285
     82 H30        30.8199   40.6317   17.5702 H           1 L04       0.0285
     83 H31        29.8513   42.3716   18.9118 H           1 L04       0.0523
     84 H32        30.6977   41.8435   20.3591 H           1 L04       0.0523
     85 H33        29.0174   39.0110   18.4670 H           1 L04       0.0699
     86 H34        28.0012   40.4056   17.9617 H           1 L04       0.0699
     87 H35        34.5244   34.6758   26.8208 H           1 L04       0.0502
     88 H36        36.3526   33.1932   27.1397 H           1 L04       0.0577
     89 H37        37.0636   31.7105   25.3570 H           1 L04       0.0487
     90 H38        35.8794   31.7179   23.2369 H           1 L04       0.0577
     91 H39        34.0361   33.2286   22.8731 H           1 L04       0.0502
     92 H40        26.3938   40.0105   22.7867 H           1 L04       0.0651
     93 H41        26.2783   37.9229   18.3793 H           1 L04       0.0569
     94 H42        24.6712   37.2684   20.0934 H           1 L04       0.0635
     95 H43        24.7007   38.3432   22.2739 H           1 L04       0.0572
     96 H44        43.5353   36.7403   19.6006 H           1 L04       0.0604
     97 H45        41.1375   36.7956   19.8092 H           1 L04       0.0606
     98 H46        31.9539   36.5876   22.5456 H           1 L04       0.1883
     99 H47        32.7972   34.9477   23.5351 H           1 L04       0.2257
@<TRIPOS>BOND
     1     1    23   1
     2     1     2   1
     3     2    18   1
     4     2     3   1
     5     3    49  ar
     6     3    48  ar
     7    18     7   1
     8     7    16   1
     9     7     8   1
    10     8     9   1
    11     9    10   1
    12    10    15  ar
    13    10    11  ar
    14    11    12  ar
    15    12    13  ar
    16    13    14  ar
    17    13     5   1
    18     5    43  ar
    19     5     6  ar
    20     6    17  ar
    21    17    41  ar
    22    41    42  ar
    23    42    43  ar
    24    14    15  ar
    25    16    50   2
    26    16    45  am
    27    45    19   1
    28    19    27   1
    29    19    20   1
    30    20    21   1
    31    21     4   1
    32    21    22   1
    33    27    51   2
    34    27    46  am
    35    46    30   1
    36    30    35  ar
    37    30    31  ar
    38    31    32  ar
    39    32    33  ar
    40    33    34  ar
    41    34    35  ar
    42    23    24   1
    43    24    25   1
    44    25    44   1
    45    44    28   1
    46    44    26  am
    47    26    47   2
    48    26    29   1
    49    29    37  ar
    50    29    36  ar
    51    36    28   1
    52    36    38  ar
    53    38    39  ar
    54    39    40  ar
    55    40    37  ar
    56    41    52   1
    57     1    53   1
    58     1    54   1
    59     2    55   1
    60     4    56   1
    61     4    57   1
    62     4    58   1
    63     6    59   1
    64     7    60   1
    65     8    61   1
    66     8    62   1
    67     9    63   1
    68     9    64   1
    69    11    65   1
    70    12    66   1
    71    14    67   1
    72    15    68   1
    73    17    69   1
    74    18    70   1
    75    18    71   1
    76    19    72   1
    77    20    73   1
    78    20    74   1
    79    21    75   1
    80    22    76   1
    81    22    77   1
    82    22    78   1
    83    23    79   1
    84    23    80   1
    85    24    81   1
    86    24    82   1
    87    25    83   1
    88    25    84   1
    89    28    85   1
    90    28    86   1
    91    31    87   1
    92    32    88   1
    93    33    89   1
    94    34    90   1
    95    35    91   1
    96    37    92   1
    97    38    93   1
    98    39    94   1
    99    40    95   1
   100    42    96   1
   101    43    97   1
   102    45    98   1
   103    46    99   1
@<TRIPOS>SUBSTRUCTURE
     1  L04      1

