@<TRIPOS>MOLECULE
1hfs_ligand_029
    99   103
SMALL
GAST_HUCK
****
This file was generated by PARSER (from files_GN.cpp)

@<TRIPOS>ATOM
      1 C1         29.4835   37.9390   25.4527 C.3         1 L04      -0.0384
      2 C2         30.6431   37.5000   24.4805 C.3         1 L04       0.0141
      3 C3         32.0051   37.9419   24.8939 C.2         1 L04       0.0380
      4 C4         25.3107   36.7438   21.5134 C.3         1 L04      -0.0625
      5 C5         37.0397   39.0810   21.6251 C.ar        1 L04      -0.0257
      6 C6         38.0536   39.0156   20.6364 C.ar        1 L04      -0.0571
      7 C7         30.1554   39.1233   22.3362 C.3         1 L04       0.0523
      8 C8         30.4141   39.1421   20.7789 C.3         1 L04      -0.0232
      9 C9         31.5274   40.1345   20.3127 C.3         1 L04      -0.0166
     10 C10        32.9460   39.8581   20.6876 C.ar        1 L04      -0.0424
     11 C11        33.9314   40.8761   20.5443 C.ar        1 L04      -0.0596
     12 C12        35.2834   40.6241   20.8223 C.ar        1 L04      -0.0610
     13 C13        35.6992   39.3425   21.2720 C.ar        1 L04      -0.0267
     14 C14        34.7346   38.3206   21.3895 C.ar        1 L04      -0.0610
     15 C15        33.3909   38.5722   21.0776 C.ar        1 L04      -0.0596
     16 C16        28.8784   39.7896   22.6195 C.2         1 L04       0.1816
     17 C17        39.3827   38.7324   20.9977 C.ar        1 L04      -0.0282
     18 C18        30.3267   37.6850   22.9531 C.3         1 L04      -0.0186
     19 C19        26.3941   39.6237   22.5635 C.3         1 L04       0.1369
     20 C20        25.7538   39.3138   21.1631 C.3         1 L04      -0.0096
     21 C21        25.8737   37.8571   20.5868 C.3         1 L04      -0.0425
     22 C22        25.2227   37.7826   19.1804 C.3         1 L04      -0.0625
     23 C23        29.7235   39.0450   26.5221 C.3         1 L04      -0.0495
     24 C24        29.9204   40.4803   25.9799 C.3         1 L04      -0.0323
     25 C25        30.0808   41.5576   27.0979 C.3         1 L04       0.0356
     26 C26        28.9538   43.4668   26.0468 C.2         1 L04       0.2046
     27 C27        25.6533   39.1948   23.7428 C.2         1 L04       0.2292
     28 C28        28.0017   42.7055   27.9803 C.3         1 L04       0.0703
     29 C29        27.8997   44.2900   26.2736 C.ar        1 L04       0.0535
     30 C30        25.4410   39.2338   26.1169 C.ar        1 L04       0.0663
     31 C31        24.2725   39.9654   26.4347 C.ar        1 L04      -0.0413
     32 C32        23.5893   39.7275   27.6391 C.ar        1 L04      -0.0755
     33 C33        24.0660   38.7602   28.5402 C.ar        1 L04      -0.0772
     34 C34        25.2308   38.0274   28.2360 C.ar        1 L04      -0.0755
     35 C35        25.9183   38.2687   27.0293 C.ar        1 L04      -0.0413
     36 C36        27.2739   43.8553   27.4432 C.ar        1 L04      -0.0003
     37 C37        27.4236   45.4115   25.5765 C.ar        1 L04      -0.0484
     38 C38        26.1371   44.5185   27.9395 C.ar        1 L04      -0.0524
     39 C39        25.6457   45.6427   27.2415 C.ar        1 L04      -0.0641
     40 C40        26.2888   46.0902   26.0675 C.ar        1 L04      -0.0630
     41 C41        39.7199   38.5143   22.3490 C.ar        1 L04       0.1322
     42 C42        38.7141   38.5591   23.3375 C.ar        1 L04      -0.0282
     43 C43        37.3861   38.8305   22.9767 C.ar        1 L04      -0.0571
     44 N1         29.0619   42.5756   27.0184 N.am        1 L04      -0.2613
     45 N18        27.7389   39.1075   22.5800 N.am        1 L04      -0.2649
     46 N29        26.1021   39.4742   24.9575 N.am        1 L04      -0.2320
     47 O1         29.6873   43.5554   25.0626 O.2         1 L04      -0.3882
     48 O4         32.5431   37.4737   26.0407 O.co2       1 L04      -0.5687
     49 O5         32.8496   38.6020   24.0680 O.co2       1 L04      -0.5687
     50 O17        28.8701   41.0142   22.6483 O.2         1 L04      -0.3966
     51 O28        24.5981   38.5554   23.6162 O.2         1 L04      -0.3823
     52 F1         40.9558   38.2768   22.6900 F           1 L04      -0.1835
     53 H1         28.6075   38.2243   24.8762 H           1 L04       0.0286
     54 H2         29.1721   37.0528   26.0109 H           1 L04       0.0286
     55 H3         30.6956   36.4084   24.5852 H           1 L04       0.0467
     56 H4         25.4152   35.7618   21.0476 H           1 L04       0.0232
     57 H5         24.2553   36.9118   21.7233 H           1 L04       0.0232
     58 H6         25.8624   36.7168   22.4523 H           1 L04       0.0232
     59 H7         37.8261   39.1635   19.6492 H           1 L04       0.0606
     60 H8         30.9264   39.7378   22.8050 H           1 L04       0.0541
     61 H9         29.5005   39.4185   20.2355 H           1 L04       0.0315
     62 H10        30.6580   38.1403   20.4021 H           1 L04       0.0315
     63 H11        31.2457   41.1220   20.6880 H           1 L04       0.0430
     64 H12        31.4988   40.1943   19.2208 H           1 L04       0.0430
     65 H13        33.6572   41.8144   20.2277 H           1 L04       0.0559
     66 H14        35.9714   41.3834   20.7222 H           1 L04       0.0604
     67 H15        35.0057   37.3789   21.6957 H           1 L04       0.0604
     68 H16        32.7414   37.7896   21.1412 H           1 L04       0.0559
     69 H17        40.1091   38.6831   20.2748 H           1 L04       0.0604
     70 H18        29.4429   37.0882   22.7060 H           1 L04       0.0313
     71 H19        31.1529   37.1905   22.4348 H           1 L04       0.0313
     72 H20        26.4222   40.7132   22.6380 H           1 L04       0.0805
     73 H21        26.2375   39.9822   20.4414 H           1 L04       0.0315
     74 H22        24.7005   39.6091   21.1844 H           1 L04       0.0315
     75 H23        26.9339   37.6440   20.4408 H           1 L04       0.0298
     76 H24        25.7747   38.4157   18.4863 H           1 L04       0.0232
     77 H25        24.1887   38.1233   19.2163 H           1 L04       0.0232
     78 H26        25.2418   36.7647   18.7889 H           1 L04       0.0232
     79 H27        30.5887   38.7712   27.1278 H           1 L04       0.0267
     80 H28        28.8581   39.0623   27.1893 H           1 L04       0.0267
     81 H29        29.0610   40.7275   25.3563 H           1 L04       0.0285
     82 H30        30.8086   40.5089   25.3449 H           1 L04       0.0285
     83 H31        31.0616   42.0362   27.0175 H           1 L04       0.0523
     84 H32        30.0647   41.0922   28.0877 H           1 L04       0.0523
     85 H33        28.3887   42.9232   28.9788 H           1 L04       0.0699
     86 H34        27.3645   41.8171   27.9964 H           1 L04       0.0699
     87 H35        23.9280   40.6815   25.7894 H           1 L04       0.0502
     88 H36        22.7474   40.2655   27.8626 H           1 L04       0.0577
     89 H37        23.5677   38.5857   29.4151 H           1 L04       0.0487
     90 H38        25.5767   37.3272   28.8941 H           1 L04       0.0577
     91 H39        26.7532   37.7224   26.8176 H           1 L04       0.0502
     92 H40        27.8974   45.7392   24.7338 H           1 L04       0.0651
     93 H41        25.6778   44.1960   28.7957 H           1 L04       0.0569
     94 H42        24.8252   46.1397   27.5955 H           1 L04       0.0635
     95 H43        25.9365   46.9138   25.5773 H           1 L04       0.0572
     96 H44        38.9517   38.3927   24.3194 H           1 L04       0.0604
     97 H45        36.6685   38.8611   23.7051 H           1 L04       0.0606
     98 H46        27.8082   38.1466   22.4932 H           1 L04       0.1883
     99 H47        26.9748   39.8972   25.0270 H           1 L04       0.2257
@<TRIPOS>BOND
     1     1    23   1
     2     1     2   1
     3     2    18   1
     4     2     3   1
     5     3    49  ar
     6     3    48  ar
     7    18     7   1
     8     7    16   1
     9     7     8   1
    10     8     9   1
    11     9    10   1
    12    10    15  ar
    13    10    11  ar
    14    11    12  ar
    15    12    13  ar
    16    13    14  ar
    17    13     5   1
    18     5    43  ar
    19     5     6  ar
    20     6    17  ar
    21    17    41  ar
    22    41    42  ar
    23    42    43  ar
    24    14    15  ar
    25    16    50   2
    26    16    45  am
    27    45    19   1
    28    19    27   1
    29    19    20   1
    30    20    21   1
    31    21     4   1
    32    21    22   1
    33    27    51   2
    34    27    46  am
    35    46    30   1
    36    30    35  ar
    37    30    31  ar
    38    31    32  ar
    39    32    33  ar
    40    33    34  ar
    41    34    35  ar
    42    23    24   1
    43    24    25   1
    44    25    44   1
    45    44    28   1
    46    44    26  am
    47    26    47   2
    48    26    29   1
    49    29    37  ar
    50    29    36  ar
    51    36    28   1
    52    36    38  ar
    53    38    39  ar
    54    39    40  ar
    55    40    37  ar
    56    41    52   1
    57     1    53   1
    58     1    54   1
    59     2    55   1
    60     4    56   1
    61     4    57   1
    62     4    58   1
    63     6    59   1
    64     7    60   1
    65     8    61   1
    66     8    62   1
    67     9    63   1
    68     9    64   1
    69    11    65   1
    70    12    66   1
    71    14    67   1
    72    15    68   1
    73    17    69   1
    74    18    70   1
    75    18    71   1
    76    19    72   1
    77    20    73   1
    78    20    74   1
    79    21    75   1
    80    22    76   1
    81    22    77   1
    82    22    78   1
    83    23    79   1
    84    23    80   1
    85    24    81   1
    86    24    82   1
    87    25    83   1
    88    25    84   1
    89    28    85   1
    90    28    86   1
    91    31    87   1
    92    32    88   1
    93    33    89   1
    94    34    90   1
    95    35    91   1
    96    37    92   1
    97    38    93   1
    98    39    94   1
    99    40    95   1
   100    42    96   1
   101    43    97   1
   102    45    98   1
   103    46    99   1
@<TRIPOS>SUBSTRUCTURE
     1  L04      1

