@<TRIPOS>MOLECULE
1hfs_ligand_063
    99   103
SMALL
GAST_HUCK
****
This file was generated by PARSER (from files_GN.cpp)

@<TRIPOS>ATOM
      1 C1         29.9806   41.7509   27.4932 C.3         1 L04      -0.0384
      2 C2         30.3793   41.2191   26.0795 C.3         1 L04       0.0141
      3 C3         30.3292   42.2940   25.0614 C.2         1 L04       0.0380
      4 C4         34.7124   41.9218   26.5592 C.3         1 L04      -0.0625
      5 C5         36.3286   38.5139   21.2263 C.ar        1 L04      -0.0257
      6 C6         37.1384   38.0568   22.3011 C.ar        1 L04      -0.0571
      7 C7         30.1678   39.0133   24.5600 C.3         1 L04       0.0523
      8 C8         30.1614   39.6059   23.1069 C.3         1 L04      -0.0232
      9 C9         30.5877   38.6166   21.9684 C.3         1 L04      -0.0166
     10 C10        32.0528   38.5505   21.7130 C.ar        1 L04      -0.0424
     11 C11        32.7356   39.6826   21.2188 C.ar        1 L04      -0.0596
     12 C12        34.1264   39.6595   21.0267 C.ar        1 L04      -0.0610
     13 C13        34.8954   38.4991   21.3104 C.ar        1 L04      -0.0267
     14 C14        34.1886   37.3465   21.7366 C.ar        1 L04      -0.0610
     15 C15        32.7976   37.3726   21.9460 C.ar        1 L04      -0.0596
     16 C16        31.4350   38.4429   25.0279 C.2         1 L04       0.1816
     17 C17        38.5418   38.1312   22.2465 C.ar        1 L04      -0.0282
     18 C18        29.5325   39.9818   25.6285 C.3         1 L04      -0.0186
     19 C19        33.9725   38.4095   24.8267 C.3         1 L04       0.1369
     20 C20        34.7216   39.5315   25.6235 C.3         1 L04      -0.0096
     21 C21        34.2915   41.0126   25.3739 C.3         1 L04      -0.0425
     22 C22        34.8293   41.5699   24.0298 C.3         1 L04      -0.0625
     23 C23        30.8673   42.9128   28.0456 C.3         1 L04      -0.0495
     24 C24        30.7888   43.0897   29.5955 C.3         1 L04      -0.0323
     25 C25        30.3739   44.4995   30.1008 C.3         1 L04       0.0356
     26 C26        30.9656   46.8412   29.6605 C.2         1 L04       0.2046
     27 C27        34.1585   37.1099   25.4752 C.2         1 L04       0.2292
     28 C28        32.7155   45.4744   30.2087 C.3         1 L04       0.0703
     29 C29        32.0431   47.6641   29.7905 C.ar        1 L04       0.0535
     30 C30        35.2760   34.9233   25.4281 C.ar        1 L04       0.0663
     31 C31        35.6324   33.9519   24.4606 C.ar        1 L04      -0.0413
     32 C32        35.9492   32.6331   24.8388 C.ar        1 L04      -0.0755
     33 C33        35.9250   32.2640   26.1933 C.ar        1 L04      -0.0772
     34 C34        35.6122   33.2218   27.1719 C.ar        1 L04      -0.0755
     35 C35        35.2986   34.5426   26.7940 C.ar        1 L04      -0.0413
     36 C36        33.1403   46.8723   30.1122 C.ar        1 L04      -0.0003
     37 C37        32.1678   49.0652   29.6931 C.ar        1 L04      -0.0484
     38 C38        34.4075   47.4465   30.3270 C.ar        1 L04      -0.0524
     39 C39        34.5483   48.8465   30.2192 C.ar        1 L04      -0.0641
     40 C40        33.4316   49.6524   29.9062 C.ar        1 L04      -0.0630
     41 C41        39.1742   38.6780   21.1171 C.ar        1 L04       0.1322
     42 C42        38.3967   39.1281   20.0356 C.ar        1 L04      -0.0282
     43 C43        36.9944   39.0371   20.0879 C.ar        1 L04      -0.0571
     44 N1         31.3141   45.5814   29.9017 N.am        1 L04      -0.2613
     45 N18        32.6148   38.8040   24.5206 N.am        1 L04      -0.2649
     46 N29        34.9638   36.1777   24.9657 N.am        1 L04      -0.2320
     47 O1         29.8334   47.2548   29.4513 O.2         1 L04      -0.3882
     48 O4         29.2462   43.0935   24.9183 O.co2       1 L04      -0.5687
     49 O5         31.3624   42.4776   24.2107 O.co2       1 L04      -0.5687
     50 O17        31.3838   37.7081   26.0085 O.2         1 L04      -0.3966
     51 O28        33.4759   36.8816   26.4636 O.2         1 L04      -0.3823
     52 F1         40.4750   38.7488   21.0617 F           1 L04      -0.1835
     53 H1         28.9362   42.0832   27.4824 H           1 L04       0.0286
     54 H2         30.0481   40.9113   28.1885 H           1 L04       0.0286
     55 H3         31.4066   40.8883   26.1691 H           1 L04       0.0467
     56 H4         34.3219   42.9309   26.4184 H           1 L04       0.0232
     57 H5         35.8030   41.9688   26.6384 H           1 L04       0.0232
     58 H6         34.3105   41.5439   27.5027 H           1 L04       0.0232
     59 H7         36.7168   37.6854   23.1538 H           1 L04       0.0606
     60 H8         29.4635   38.1764   24.4988 H           1 L04       0.0541
     61 H9         30.7606   40.5190   23.0663 H           1 L04       0.0315
     62 H10        29.1344   39.9034   22.8783 H           1 L04       0.0315
     63 H11        30.1128   38.9160   21.0307 H           1 L04       0.0430
     64 H12        30.1926   37.6231   22.2018 H           1 L04       0.0430
     65 H13        32.2253   40.5501   21.0271 H           1 L04       0.0559
     66 H14        34.5753   40.5225   20.7131 H           1 L04       0.0604
     67 H15        34.6818   36.4708   21.9153 H           1 L04       0.0604
     68 H16        32.3391   36.5307   22.2971 H           1 L04       0.0559
     69 H17        39.0996   37.7927   23.0345 H           1 L04       0.0604
     70 H18        28.5580   40.3281   25.2589 H           1 L04       0.0313
     71 H19        29.3060   39.3800   26.5121 H           1 L04       0.0313
     72 H20        34.4534   38.3493   23.8478 H           1 L04       0.0805
     73 H21        35.7923   39.4546   25.4051 H           1 L04       0.0315
     74 H22        34.6018   39.3299   26.6923 H           1 L04       0.0315
     75 H23        33.2123   41.0589   25.3343 H           1 L04       0.0298
     76 H24        34.4963   40.9514   23.1988 H           1 L04       0.0232
     77 H25        35.9247   41.5985   24.0237 H           1 L04       0.0232
     78 H26        34.4533   42.5816   23.8607 H           1 L04       0.0232
     79 H27        30.5696   43.8401   27.5490 H           1 L04       0.0267
     80 H28        31.9081   42.7219   27.7730 H           1 L04       0.0267
     81 H29        31.7545   42.8244   30.0376 H           1 L04       0.0285
     82 H30        30.0588   42.3869   30.0086 H           1 L04       0.0285
     83 H31        30.2038   44.4242   31.1780 H           1 L04       0.0523
     84 H32        29.4079   44.7344   29.6456 H           1 L04       0.0523
     85 H33        33.2436   44.8577   29.4779 H           1 L04       0.0699
     86 H34        32.8805   45.0962   31.2207 H           1 L04       0.0699
     87 H35        35.6485   34.1961   23.4677 H           1 L04       0.0502
     88 H36        36.2008   31.9424   24.1269 H           1 L04       0.0577
     89 H37        36.1570   31.3077   26.4708 H           1 L04       0.0487
     90 H38        35.6240   32.9645   28.1621 H           1 L04       0.0577
     91 H39        35.1072   35.2179   27.5310 H           1 L04       0.0502
     92 H40        31.3569   49.6495   29.4718 H           1 L04       0.0651
     93 H41        35.2102   46.8613   30.5671 H           1 L04       0.0569
     94 H42        35.4602   49.2795   30.3773 H           1 L04       0.0635
     95 H43        33.5388   50.6675   29.8387 H           1 L04       0.0572
     96 H44        38.8498   39.5073   19.2021 H           1 L04       0.0604
     97 H45        36.4610   39.3469   19.2722 H           1 L04       0.0606
     98 H46        32.5487   39.4709   23.8134 H           1 L04       0.1883
     99 H47        35.3521   36.3966   24.1016 H           1 L04       0.2257
@<TRIPOS>BOND
     1     1    23   1
     2     1     2   1
     3     2    18   1
     4     2     3   1
     5     3    49  ar
     6     3    48  ar
     7    18     7   1
     8     7    16   1
     9     7     8   1
    10     8     9   1
    11     9    10   1
    12    10    15  ar
    13    10    11  ar
    14    11    12  ar
    15    12    13  ar
    16    13    14  ar
    17    13     5   1
    18     5    43  ar
    19     5     6  ar
    20     6    17  ar
    21    17    41  ar
    22    41    42  ar
    23    42    43  ar
    24    14    15  ar
    25    16    50   2
    26    16    45  am
    27    45    19   1
    28    19    27   1
    29    19    20   1
    30    20    21   1
    31    21     4   1
    32    21    22   1
    33    27    51   2
    34    27    46  am
    35    46    30   1
    36    30    35  ar
    37    30    31  ar
    38    31    32  ar
    39    32    33  ar
    40    33    34  ar
    41    34    35  ar
    42    23    24   1
    43    24    25   1
    44    25    44   1
    45    44    28   1
    46    44    26  am
    47    26    47   2
    48    26    29   1
    49    29    37  ar
    50    29    36  ar
    51    36    28   1
    52    36    38  ar
    53    38    39  ar
    54    39    40  ar
    55    40    37  ar
    56    41    52   1
    57     1    53   1
    58     1    54   1
    59     2    55   1
    60     4    56   1
    61     4    57   1
    62     4    58   1
    63     6    59   1
    64     7    60   1
    65     8    61   1
    66     8    62   1
    67     9    63   1
    68     9    64   1
    69    11    65   1
    70    12    66   1
    71    14    67   1
    72    15    68   1
    73    17    69   1
    74    18    70   1
    75    18    71   1
    76    19    72   1
    77    20    73   1
    78    20    74   1
    79    21    75   1
    80    22    76   1
    81    22    77   1
    82    22    78   1
    83    23    79   1
    84    23    80   1
    85    24    81   1
    86    24    82   1
    87    25    83   1
    88    25    84   1
    89    28    85   1
    90    28    86   1
    91    31    87   1
    92    32    88   1
    93    33    89   1
    94    34    90   1
    95    35    91   1
    96    37    92   1
    97    38    93   1
    98    39    94   1
    99    40    95   1
   100    42    96   1
   101    43    97   1
   102    45    98   1
   103    46    99   1
@<TRIPOS>SUBSTRUCTURE
     1  L04      1

