@<TRIPOS>MOLECULE
1hfs_ligand_043
    99   103
SMALL
GAST_HUCK
****
This file was generated by PARSER (from files_GN.cpp)

@<TRIPOS>ATOM
      1 C1         33.5894   36.4538   23.2244 C.3         1 L04      -0.0384
      2 C2         32.5017   37.3863   23.8587 C.3         1 L04       0.0141
      3 C3         32.3282   37.1963   25.3267 C.2         1 L04       0.0380
      4 C4         27.6656   41.1187   29.0049 C.3         1 L04      -0.0625
      5 C5         35.6407   41.2003   22.7303 C.ar        1 L04      -0.0257
      6 C6         36.6071   41.7174   21.8399 C.ar        1 L04      -0.0571
      7 C7         30.0756   38.3760   23.3073 C.3         1 L04       0.0523
      8 C8         29.5152   39.0095   21.9837 C.3         1 L04      -0.0232
      9 C9         30.5144   39.4174   20.8575 C.3         1 L04      -0.0166
     10 C10        31.8431   39.9156   21.3062 C.ar        1 L04      -0.0424
     11 C11        31.9689   41.1295   22.0241 C.ar        1 L04      -0.0596
     12 C12        33.2190   41.5451   22.5151 C.ar        1 L04      -0.0610
     13 C13        34.3830   40.7862   22.2436 C.ar        1 L04      -0.0267
     14 C14        34.2724   39.6052   21.4747 C.ar        1 L04      -0.0610
     15 C15        33.0125   39.1657   21.0389 C.ar        1 L04      -0.0596
     16 C16        28.9445   37.9774   24.1507 C.2         1 L04       0.1816
     17 C17        37.8584   42.1445   22.3099 C.ar        1 L04      -0.0282
     18 C18        31.1315   37.2147   23.1114 C.3         1 L04      -0.0186
     19 C19        27.2760   38.6071   25.8843 C.3         1 L04       0.1369
     20 C20        27.5719   39.2153   27.2971 C.3         1 L04      -0.0096
     21 C21        27.2639   40.7286   27.5553 C.3         1 L04      -0.0425
     22 C22        27.9271   41.6842   26.5261 C.3         1 L04      -0.0625
     23 C23        35.0522   36.7094   23.7024 C.3         1 L04      -0.0495
     24 C24        36.0854   35.7187   23.0747 C.3         1 L04      -0.0323
     25 C25        36.9771   36.3257   21.9503 C.3         1 L04       0.0356
     26 C26        38.9784   36.8000   23.2908 C.2         1 L04       0.2046
     27 C27        26.0103   39.0591   25.2972 C.2         1 L04       0.2292
     28 C28        38.3117   38.4743   21.8857 C.3         1 L04       0.0703
     29 C29        39.9208   37.7695   23.4153 C.ar        1 L04       0.0535
     30 C30        23.6451   39.4086   25.6873 C.ar        1 L04       0.0663
     31 C31        22.9006   40.1155   26.6592 C.ar        1 L04      -0.0413
     32 C32        21.5934   40.5553   26.3786 C.ar        1 L04      -0.0755
     33 C33        21.0084   40.2721   25.1333 C.ar        1 L04      -0.0772
     34 C34        21.7295   39.5496   24.1670 C.ar        1 L04      -0.0755
     35 C35        23.0420   39.1188   24.4411 C.ar        1 L04      -0.0413
     36 C36        39.5748   38.8031   22.5479 C.ar        1 L04      -0.0003
     37 C37        41.1002   37.8268   24.1837 C.ar        1 L04      -0.0484
     38 C38        40.4300   39.9066   22.3750 C.ar        1 L04      -0.0524
     39 C39        41.6277   39.9637   23.1177 C.ar        1 L04      -0.0641
     40 C40        41.9557   38.9368   24.0301 C.ar        1 L04      -0.0630
     41 C41        38.1769   42.0204   23.6768 C.ar        1 L04       0.1322
     42 C42        37.2320   41.4744   24.5693 C.ar        1 L04      -0.0282
     43 C43        35.9670   41.0804   24.1027 C.ar        1 L04      -0.0571
     44 N1         38.0501   37.1679   22.4175 N.am        1 L04      -0.2613
     45 N18        28.4270   38.8238   25.0411 N.am        1 L04      -0.2649
     46 N29        24.8987   38.9865   26.0237 N.am        1 L04      -0.2320
     47 O1         39.0717   35.6932   23.8072 O.2         1 L04      -0.3882
     48 O4         31.5950   38.0640   26.0540 O.co2       1 L04      -0.5687
     49 O5         32.8742   36.1746   26.0209 O.co2       1 L04      -0.5687
     50 O17        28.3751   36.9216   23.9062 O.2         1 L04      -0.3966
     51 O28        26.0019   39.5598   24.1748 O.2         1 L04      -0.3823
     52 F1         39.3450   42.4090   24.1112 F           1 L04      -0.1835
     53 H1         33.3225   35.4142   23.4292 H           1 L04       0.0286
     54 H2         33.5851   36.5859   22.1374 H           1 L04       0.0286
     55 H3         32.8524   38.4133   23.7064 H           1 L04       0.0467
     56 H4         27.3653   42.1463   29.2190 H           1 L04       0.0232
     57 H5         28.7462   41.0315   29.1428 H           1 L04       0.0232
     58 H6         27.1687   40.4686   29.7300 H           1 L04       0.0232
     59 H7         36.3919   41.8018   20.8454 H           1 L04       0.0606
     60 H8         30.5871   39.1992   23.8134 H           1 L04       0.0541
     61 H9         28.9603   39.9118   22.2618 H           1 L04       0.0315
     62 H10        28.7800   38.3338   21.5344 H           1 L04       0.0315
     63 H11        30.0530   40.2011   20.2507 H           1 L04       0.0430
     64 H12        30.6331   38.5560   20.1930 H           1 L04       0.0430
     65 H13        31.1402   41.6966   22.2261 H           1 L04       0.0559
     66 H14        33.2811   42.4123   23.0557 H           1 L04       0.0604
     67 H15        35.1028   39.0452   21.2498 H           1 L04       0.0604
     68 H16        32.9508   38.2766   20.5387 H           1 L04       0.0559
     69 H17        38.5401   42.5334   21.6521 H           1 L04       0.0604
     70 H18        30.7072   36.2464   23.4105 H           1 L04       0.0313
     71 H19        31.3409   37.1199   22.0416 H           1 L04       0.0313
     72 H20        27.1779   37.5231   26.0306 H           1 L04       0.0805
     73 H21        28.6221   39.0255   27.5365 H           1 L04       0.0315
     74 H22        26.9883   38.6387   28.0190 H           1 L04       0.0315
     75 H23        26.1835   40.8803   27.4834 H           1 L04       0.0298
     76 H24        27.5434   41.4875   25.5223 H           1 L04       0.0232
     77 H25        29.0117   41.5555   26.5294 H           1 L04       0.0232
     78 H26        27.7017   42.7237   26.7749 H           1 L04       0.0232
     79 H27        35.0906   36.6030   24.7887 H           1 L04       0.0267
     80 H28        35.3297   37.7449   23.4805 H           1 L04       0.0267
     81 H29        35.5619   34.8511   22.6578 H           1 L04       0.0285
     82 H30        36.7330   35.3383   23.8721 H           1 L04       0.0285
     83 H31        36.3366   36.8676   21.2470 H           1 L04       0.0523
     84 H32        37.4312   35.5057   21.3891 H           1 L04       0.0523
     85 H33        37.5273   39.1778   22.1652 H           1 L04       0.0699
     86 H34        38.4389   38.4500   20.7997 H           1 L04       0.0699
     87 H35        23.3119   40.3227   27.5740 H           1 L04       0.0502
     88 H36        21.0714   41.0824   27.0821 H           1 L04       0.0577
     89 H37        20.0578   40.5868   24.9316 H           1 L04       0.0487
     90 H38        21.3002   39.3379   23.2653 H           1 L04       0.0577
     91 H39        23.5427   38.5650   23.7414 H           1 L04       0.0502
     92 H40        41.3430   37.0692   24.8237 H           1 L04       0.0651
     93 H41        40.2001   40.6393   21.7022 H           1 L04       0.0569
     94 H42        42.2683   40.7459   22.9868 H           1 L04       0.0635
     95 H43        42.8235   38.9843   24.5646 H           1 L04       0.0572
     96 H44        37.4631   41.3839   25.5628 H           1 L04       0.0604
     97 H45        35.2905   40.6928   24.7647 H           1 L04       0.0606
     98 H46        28.8553   39.6897   25.1006 H           1 L04       0.1883
     99 H47        25.0110   38.7108   26.9486 H           1 L04       0.2257
@<TRIPOS>BOND
     1     1    23   1
     2     1     2   1
     3     2    18   1
     4     2     3   1
     5     3    49  ar
     6     3    48  ar
     7    18     7   1
     8     7    16   1
     9     7     8   1
    10     8     9   1
    11     9    10   1
    12    10    15  ar
    13    10    11  ar
    14    11    12  ar
    15    12    13  ar
    16    13    14  ar
    17    13     5   1
    18     5    43  ar
    19     5     6  ar
    20     6    17  ar
    21    17    41  ar
    22    41    42  ar
    23    42    43  ar
    24    14    15  ar
    25    16    50   2
    26    16    45  am
    27    45    19   1
    28    19    27   1
    29    19    20   1
    30    20    21   1
    31    21     4   1
    32    21    22   1
    33    27    51   2
    34    27    46  am
    35    46    30   1
    36    30    35  ar
    37    30    31  ar
    38    31    32  ar
    39    32    33  ar
    40    33    34  ar
    41    34    35  ar
    42    23    24   1
    43    24    25   1
    44    25    44   1
    45    44    28   1
    46    44    26  am
    47    26    47   2
    48    26    29   1
    49    29    37  ar
    50    29    36  ar
    51    36    28   1
    52    36    38  ar
    53    38    39  ar
    54    39    40  ar
    55    40    37  ar
    56    41    52   1
    57     1    53   1
    58     1    54   1
    59     2    55   1
    60     4    56   1
    61     4    57   1
    62     4    58   1
    63     6    59   1
    64     7    60   1
    65     8    61   1
    66     8    62   1
    67     9    63   1
    68     9    64   1
    69    11    65   1
    70    12    66   1
    71    14    67   1
    72    15    68   1
    73    17    69   1
    74    18    70   1
    75    18    71   1
    76    19    72   1
    77    20    73   1
    78    20    74   1
    79    21    75   1
    80    22    76   1
    81    22    77   1
    82    22    78   1
    83    23    79   1
    84    23    80   1
    85    24    81   1
    86    24    82   1
    87    25    83   1
    88    25    84   1
    89    28    85   1
    90    28    86   1
    91    31    87   1
    92    32    88   1
    93    33    89   1
    94    34    90   1
    95    35    91   1
    96    37    92   1
    97    38    93   1
    98    39    94   1
    99    40    95   1
   100    42    96   1
   101    43    97   1
   102    45    98   1
   103    46    99   1
@<TRIPOS>SUBSTRUCTURE
     1  L04      1

