@<TRIPOS>MOLECULE
1hfs_ligand_039
    99   103
SMALL
GAST_HUCK
****
This file was generated by PARSER (from files_GN.cpp)

@<TRIPOS>ATOM
      1 C1         36.7039   38.4821   23.3225 C.3         1 L04      -0.0384
      2 C2         35.7461   37.2992   23.6945 C.3         1 L04       0.0141
      3 C3         35.5317   36.4111   22.5281 C.2         1 L04       0.0380
      4 C4         26.7828   39.4032   24.9781 C.3         1 L04      -0.0625
      5 C5         37.0989   31.9562   29.7360 C.ar        1 L04      -0.0257
      6 C6         37.5189   32.7142   30.8570 C.ar        1 L04      -0.0571
      7 C7         33.2014   36.8349   24.5847 C.3         1 L04       0.0523
      8 C8         33.5653   35.8170   25.7342 C.3         1 L04      -0.0232
      9 C9         34.4026   34.5704   25.3141 C.3         1 L04      -0.0166
     10 C10        35.0719   33.8878   26.4602 C.ar        1 L04      -0.0424
     11 C11        34.8543   32.5212   26.7460 C.ar        1 L04      -0.0596
     12 C12        35.5357   31.8872   27.8039 C.ar        1 L04      -0.0610
     13 C13        36.4512   32.5940   28.6238 C.ar        1 L04      -0.0267
     14 C14        36.6840   33.9579   28.3120 C.ar        1 L04      -0.0610
     15 C15        36.0101   34.5921   27.2502 C.ar        1 L04      -0.0596
     16 C16        31.9733   37.6093   24.8636 C.2         1 L04       0.1816
     17 C17        38.0992   32.0999   31.9827 C.ar        1 L04      -0.0282
     18 C18        34.3798   37.8381   24.2489 C.3         1 L04      -0.0186
     19 C19        30.1773   39.0699   23.8687 C.3         1 L04       0.1369
     20 C20        28.8726   38.2082   23.9551 C.3         1 L04      -0.0096
     21 C21        27.4740   38.8755   23.6887 C.3         1 L04      -0.0425
     22 C22        27.4631   39.9614   22.5748 C.3         1 L04      -0.0625
     23 C23        37.9745   38.2059   22.4575 C.3         1 L04      -0.0495
     24 C24        39.1778   37.4609   23.1163 C.3         1 L04      -0.0323
     25 C25        39.2680   35.9220   22.8846 C.3         1 L04       0.0356
     26 C26        41.6505   35.8832   23.6222 C.2         1 L04       0.2046
     27 C27        30.2876   40.1857   24.8143 C.2         1 L04       0.2292
     28 C28        40.9451   34.1217   22.3479 C.3         1 L04       0.0703
     29 C29        42.7544   35.1168   23.4111 C.ar        1 L04       0.0535
     30 C30        30.0592   40.8856   27.1484 C.ar        1 L04       0.0663
     31 C31        29.3005   40.5570   28.2947 C.ar        1 L04      -0.0413
     32 C32        29.3546   41.3499   29.4588 C.ar        1 L04      -0.0755
     33 C33        30.1865   42.4853   29.4932 C.ar        1 L04      -0.0772
     34 C34        30.9481   42.8267   28.3631 C.ar        1 L04      -0.0755
     35 C35        30.8874   42.0345   27.1997 C.ar        1 L04      -0.0413
     36 C36        42.3692   34.0137   22.6532 C.ar        1 L04      -0.0003
     37 C37        44.1004   35.2947   23.7881 C.ar        1 L04      -0.0484
     38 C38        43.3066   33.0320   22.2723 C.ar        1 L04      -0.0524
     39 C39        44.6563   33.2034   22.6470 C.ar        1 L04      -0.0641
     40 C40        45.0536   34.3321   23.3936 C.ar        1 L04      -0.0630
     41 C41        38.2866   30.7080   32.0051 C.ar        1 L04       0.1322
     42 C42        37.8900   29.9345   30.9007 C.ar        1 L04      -0.0282
     43 C43        37.3015   30.5515   29.7795 C.ar        1 L04      -0.0571
     44 N1         40.6027   35.3670   22.9802 N.am        1 L04      -0.2613
     45 N18        31.3644   38.2481   23.8627 N.am        1 L04      -0.2649
     46 N29        30.0039   40.0064   26.1018 N.am        1 L04      -0.2320
     47 O1         41.6618   36.9118   24.2854 O.2         1 L04      -0.3882
     48 O4         34.6673   36.7506   21.5444 O.co2       1 L04      -0.5687
     49 O5         36.2109   35.2460   22.4108 O.co2       1 L04      -0.5687
     50 O17        31.5196   37.6906   26.0014 O.2         1 L04      -0.3966
     51 O28        30.5944   41.2954   24.3913 O.2         1 L04      -0.3823
     52 F1         38.8173   30.1364   33.0504 F           1 L04      -0.1835
     53 H1         36.1200   39.2163   22.7596 H           1 L04       0.0286
     54 H2         37.0217   38.9747   24.2487 H           1 L04       0.0286
     55 H3         36.2378   36.7374   24.4881 H           1 L04       0.0467
     56 H4         25.7624   39.7270   24.7529 H           1 L04       0.0232
     57 H5         27.3256   40.2503   25.4012 H           1 L04       0.0232
     58 H6         26.7215   38.6105   25.7301 H           1 L04       0.0232
     59 H7         37.3821   33.7279   30.8808 H           1 L04       0.0606
     60 H8         32.9749   36.2437   23.6905 H           1 L04       0.0541
     61 H9         32.6447   35.4090   26.1630 H           1 L04       0.0315
     62 H10        34.0698   36.3657   26.5362 H           1 L04       0.0315
     63 H11        35.1802   34.8484   24.6044 H           1 L04       0.0430
     64 H12        33.7354   33.8776   24.7898 H           1 L04       0.0430
     65 H13        34.1909   31.9728   26.1896 H           1 L04       0.0559
     66 H14        35.3276   30.9014   27.9891 H           1 L04       0.0604
     67 H15        37.3613   34.5093   28.8469 H           1 L04       0.0604
     68 H16        36.2173   35.5753   27.0517 H           1 L04       0.0559
     69 H17        38.3781   32.6714   32.7814 H           1 L04       0.0604
     70 H18        34.0192   38.5587   23.5057 H           1 L04       0.0313
     71 H19        34.5925   38.4259   25.1528 H           1 L04       0.0313
     72 H20        30.1706   39.4945   22.8601 H           1 L04       0.0805
     73 H21        28.8468   37.7059   24.9255 H           1 L04       0.0315
     74 H22        28.9897   37.4122   23.2123 H           1 L04       0.0315
     75 H23        26.8211   38.0715   23.3290 H           1 L04       0.0298
     76 H24        27.9269   39.5720   21.6631 H           1 L04       0.0232
     77 H25        28.0043   40.8562   22.8973 H           1 L04       0.0232
     78 H26        26.4322   40.2480   22.3375 H           1 L04       0.0232
     79 H27        38.3534   39.1926   22.1683 H           1 L04       0.0267
     80 H28        37.6965   37.7024   21.5264 H           1 L04       0.0267
     81 H29        39.1756   37.6746   24.1898 H           1 L04       0.0285
     82 H30        40.0843   37.9073   22.6942 H           1 L04       0.0285
     83 H31        38.8676   35.7084   21.8880 H           1 L04       0.0523
     84 H32        38.6244   35.4104   23.6037 H           1 L04       0.0523
     85 H33        40.7821   34.1681   21.2684 H           1 L04       0.0699
     86 H34        40.3861   33.2889   22.7830 H           1 L04       0.0699
     87 H35        28.6930   39.7348   28.2897 H           1 L04       0.0502
     88 H36        28.7918   41.0995   30.2781 H           1 L04       0.0577
     89 H37        30.2408   43.0490   30.3449 H           1 L04       0.0487
     90 H38        31.5601   43.6462   28.3984 H           1 L04       0.0577
     91 H39        31.4846   42.2853   26.4100 H           1 L04       0.0502
     92 H40        44.3851   36.1138   24.3290 H           1 L04       0.0651
     93 H41        43.0176   32.2192   21.7229 H           1 L04       0.0569
     94 H42        45.3523   32.5094   22.3653 H           1 L04       0.0635
     95 H43        46.0373   34.4539   23.6503 H           1 L04       0.0572
     96 H44        38.0281   28.9226   30.9093 H           1 L04       0.0604
     97 H45        37.0323   29.9590   28.9896 H           1 L04       0.0606
     98 H46        31.7866   38.1487   22.9916 H           1 L04       0.1883
     99 H47        29.6518   39.1344   26.3315 H           1 L04       0.2257
@<TRIPOS>BOND
     1     1    23   1
     2     1     2   1
     3     2    18   1
     4     2     3   1
     5     3    49  ar
     6     3    48  ar
     7    18     7   1
     8     7    16   1
     9     7     8   1
    10     8     9   1
    11     9    10   1
    12    10    15  ar
    13    10    11  ar
    14    11    12  ar
    15    12    13  ar
    16    13    14  ar
    17    13     5   1
    18     5    43  ar
    19     5     6  ar
    20     6    17  ar
    21    17    41  ar
    22    41    42  ar
    23    42    43  ar
    24    14    15  ar
    25    16    50   2
    26    16    45  am
    27    45    19   1
    28    19    27   1
    29    19    20   1
    30    20    21   1
    31    21     4   1
    32    21    22   1
    33    27    51   2
    34    27    46  am
    35    46    30   1
    36    30    35  ar
    37    30    31  ar
    38    31    32  ar
    39    32    33  ar
    40    33    34  ar
    41    34    35  ar
    42    23    24   1
    43    24    25   1
    44    25    44   1
    45    44    28   1
    46    44    26  am
    47    26    47   2
    48    26    29   1
    49    29    37  ar
    50    29    36  ar
    51    36    28   1
    52    36    38  ar
    53    38    39  ar
    54    39    40  ar
    55    40    37  ar
    56    41    52   1
    57     1    53   1
    58     1    54   1
    59     2    55   1
    60     4    56   1
    61     4    57   1
    62     4    58   1
    63     6    59   1
    64     7    60   1
    65     8    61   1
    66     8    62   1
    67     9    63   1
    68     9    64   1
    69    11    65   1
    70    12    66   1
    71    14    67   1
    72    15    68   1
    73    17    69   1
    74    18    70   1
    75    18    71   1
    76    19    72   1
    77    20    73   1
    78    20    74   1
    79    21    75   1
    80    22    76   1
    81    22    77   1
    82    22    78   1
    83    23    79   1
    84    23    80   1
    85    24    81   1
    86    24    82   1
    87    25    83   1
    88    25    84   1
    89    28    85   1
    90    28    86   1
    91    31    87   1
    92    32    88   1
    93    33    89   1
    94    34    90   1
    95    35    91   1
    96    37    92   1
    97    38    93   1
    98    39    94   1
    99    40    95   1
   100    42    96   1
   101    43    97   1
   102    45    98   1
   103    46    99   1
@<TRIPOS>SUBSTRUCTURE
     1  L04      1

