@<TRIPOS>MOLECULE
1hfs_ligand_081
    99   103
SMALL
GAST_HUCK
****
This file was generated by PARSER (from files_GN.cpp)

@<TRIPOS>ATOM
      1 C1         33.2853   40.3983   24.1128 C.3         1 L04      -0.0384
      2 C2         32.4292   39.0797   24.2251 C.3         1 L04       0.0141
      3 C3         33.1965   37.9926   24.8934 C.2         1 L04       0.0380
      4 C4         25.2438   36.9078   20.8504 C.3         1 L04      -0.0625
      5 C5         31.3978   39.9360   14.2830 C.ar        1 L04      -0.0257
      6 C6         32.0892   39.0306   13.4396 C.ar        1 L04      -0.0571
      7 C7         30.5771   39.4513   22.3989 C.3         1 L04       0.0523
      8 C8         30.6138   39.8319   20.8794 C.3         1 L04      -0.0232
      9 C9         30.4228   38.6731   19.8470 C.3         1 L04      -0.0166
     10 C10        30.6917   39.0236   18.4165 C.ar        1 L04      -0.0424
     11 C11        30.6151   38.0126   17.4262 C.ar        1 L04      -0.0596
     12 C12        30.8650   38.3039   16.0755 C.ar        1 L04      -0.0610
     13 C13        31.1725   39.6237   15.6526 C.ar        1 L04      -0.0267
     14 C14        31.2220   40.6355   16.6403 C.ar        1 L04      -0.0610
     15 C15        30.9735   40.3480   17.9905 C.ar        1 L04      -0.0596
     16 C16        29.2803   38.8750   22.8081 C.2         1 L04       0.1816
     17 C17        32.2856   39.3282   12.0813 C.ar        1 L04      -0.0282
     18 C18        31.8568   38.6251   22.8325 C.3         1 L04      -0.0186
     19 C19        26.9217   39.3787   23.4936 C.3         1 L04       0.1369
     20 C20        26.2396   38.1331   22.8385 C.3         1 L04      -0.0096
     21 C21        26.0824   38.1408   21.2822 C.3         1 L04      -0.0425
     22 C22        25.4642   39.4526   20.7223 C.3         1 L04      -0.0625
     23 C23        33.0830   41.3845   25.3071 C.3         1 L04      -0.0495
     24 C24        31.6156   41.9050   25.4290 C.3         1 L04      -0.0323
     25 C25        31.1722   42.1777   26.8967 C.3         1 L04       0.0356
     26 C26        29.3796   43.8089   26.2313 C.2         1 L04       0.2046
     27 C27        26.9232   39.3027   24.9623 C.2         1 L04       0.2292
     28 C28        29.6263   43.3489   28.4621 C.3         1 L04       0.0703
     29 C29        28.4355   44.5505   26.8688 C.ar        1 L04       0.0535
     30 C30        25.5703   39.0235   26.9551 C.ar        1 L04       0.0663
     31 C31        26.3286   39.6958   27.9445 C.ar        1 L04      -0.0413
     32 C32        26.0589   39.4935   29.3128 C.ar        1 L04      -0.0755
     33 C33        25.0339   38.6185   29.7097 C.ar        1 L04      -0.0772
     34 C34        24.2598   37.9594   28.7354 C.ar        1 L04      -0.0755
     35 C35        24.5188   38.1776   27.3675 C.ar        1 L04      -0.0413
     36 C36        28.5368   44.2947   28.2322 C.ar        1 L04      -0.0003
     37 C37        27.4824   45.4595   26.3715 C.ar        1 L04      -0.0484
     38 C38        27.6773   44.9264   29.1484 C.ar        1 L04      -0.0524
     39 C39        26.7187   45.8390   28.6626 C.ar        1 L04      -0.0641
     40 C40        26.6282   46.1110   27.2814 C.ar        1 L04      -0.0630
     41 C41        31.8224   40.5435   11.5501 C.ar        1 L04       0.1322
     42 C42        31.1392   41.4532   12.3733 C.ar        1 L04      -0.0282
     43 C43        30.9299   41.1538   13.7292 C.ar        1 L04      -0.0571
     44 N1         30.0867   43.1101   27.1194 N.am        1 L04      -0.2613
     45 N18        28.2240   39.6803   22.9369 N.am        1 L04      -0.2649
     46 N29        25.7709   39.1740   25.6129 N.am        1 L04      -0.2320
     47 O1         29.5232   43.8330   25.0155 O.2         1 L04      -0.3882
     48 O4         34.2848   37.4366   24.3086 O.co2       1 L04      -0.5687
     49 O5         32.8045   37.5289   26.1067 O.co2       1 L04      -0.5687
     50 O17        29.1982   37.6897   23.1258 O.2         1 L04      -0.3966
     51 O28        27.9837   39.3082   25.5770 O.2         1 L04      -0.3823
     52 F1         32.0209   40.8257   10.2945 F           1 L04      -0.1835
     53 H1         34.3491   40.1382   24.0248 H           1 L04       0.0286
     54 H2         33.0366   40.9326   23.1877 H           1 L04       0.0286
     55 H3         31.5607   39.2773   24.8655 H           1 L04       0.0467
     56 H4         25.1250   36.8743   19.7639 H           1 L04       0.0232
     57 H5         24.2566   36.9379   21.3115 H           1 L04       0.0232
     58 H6         25.7340   35.9834   21.1640 H           1 L04       0.0232
     59 H7         32.4474   38.1458   13.8118 H           1 L04       0.0606
     60 H8         30.6483   40.4146   22.9173 H           1 L04       0.0541
     61 H9         31.5783   40.3185   20.6698 H           1 L04       0.0315
     62 H10        29.8314   40.5832   20.7069 H           1 L04       0.0315
     63 H11        29.3949   38.3070   19.9150 H           1 L04       0.0430
     64 H12        31.0851   37.8524   20.1438 H           1 L04       0.0430
     65 H13        30.3692   37.0516   17.6899 H           1 L04       0.0559
     66 H14        30.7965   37.5436   15.3924 H           1 L04       0.0604
     67 H15        31.4420   41.6033   16.3843 H           1 L04       0.0604
     68 H16        31.0117   41.1233   18.6577 H           1 L04       0.0559
     69 H17        32.7822   38.6631   11.4878 H           1 L04       0.0604
     70 H18        31.6064   37.5532   22.8672 H           1 L04       0.0313
     71 H19        32.6585   38.7148   22.0798 H           1 L04       0.0313
     72 H20        26.3138   40.2497   23.2521 H           1 L04       0.0805
     73 H21        25.2344   38.0246   23.2663 H           1 L04       0.0315
     74 H22        26.8224   37.2514   23.1282 H           1 L04       0.0315
     75 H23        27.0717   38.0314   20.8364 H           1 L04       0.0298
     76 H24        26.1551   40.2870   20.8623 H           1 L04       0.0232
     77 H25        24.5189   39.6865   21.2181 H           1 L04       0.0232
     78 H26        25.2817   39.3545   19.6497 H           1 L04       0.0232
     79 H27        33.7531   42.2416   25.1641 H           1 L04       0.0267
     80 H28        33.4035   40.8800   26.2238 H           1 L04       0.0267
     81 H29        30.9264   41.1675   24.9930 H           1 L04       0.0285
     82 H30        31.5532   42.8366   24.8473 H           1 L04       0.0285
     83 H31        32.0492   42.5238   27.4606 H           1 L04       0.0523
     84 H32        30.8549   41.2117   27.3090 H           1 L04       0.0523
     85 H33        30.4064   43.8031   29.0797 H           1 L04       0.0699
     86 H34        29.2490   42.4356   28.9273 H           1 L04       0.0699
     87 H35        27.0644   40.3524   27.6800 H           1 L04       0.0502
     88 H36        26.6111   39.9852   30.0204 H           1 L04       0.0577
     89 H37        24.8406   38.4675   30.7030 H           1 L04       0.0487
     90 H38        23.5134   37.3197   29.0258 H           1 L04       0.0577
     91 H39        23.9517   37.6831   26.6723 H           1 L04       0.0502
     92 H40        27.4235   45.6563   25.3698 H           1 L04       0.0651
     93 H41        27.7462   44.7252   30.1483 H           1 L04       0.0569
     94 H42        26.0929   46.3120   29.3158 H           1 L04       0.0635
     95 H43        25.9386   46.7802   26.9376 H           1 L04       0.0572
     96 H44        30.7970   42.3358   11.9941 H           1 L04       0.0604
     97 H45        30.4093   41.8205   14.3067 H           1 L04       0.0606
     98 H46        28.3638   40.6018   22.6464 H           1 L04       0.1883
     99 H47        24.9812   39.0732   25.0629 H           1 L04       0.2257
@<TRIPOS>BOND
     1     1    23   1
     2     1     2   1
     3     2    18   1
     4     2     3   1
     5     3    49  ar
     6     3    48  ar
     7    18     7   1
     8     7    16   1
     9     7     8   1
    10     8     9   1
    11     9    10   1
    12    10    15  ar
    13    10    11  ar
    14    11    12  ar
    15    12    13  ar
    16    13    14  ar
    17    13     5   1
    18     5    43  ar
    19     5     6  ar
    20     6    17  ar
    21    17    41  ar
    22    41    42  ar
    23    42    43  ar
    24    14    15  ar
    25    16    50   2
    26    16    45  am
    27    45    19   1
    28    19    27   1
    29    19    20   1
    30    20    21   1
    31    21     4   1
    32    21    22   1
    33    27    51   2
    34    27    46  am
    35    46    30   1
    36    30    35  ar
    37    30    31  ar
    38    31    32  ar
    39    32    33  ar
    40    33    34  ar
    41    34    35  ar
    42    23    24   1
    43    24    25   1
    44    25    44   1
    45    44    28   1
    46    44    26  am
    47    26    47   2
    48    26    29   1
    49    29    37  ar
    50    29    36  ar
    51    36    28   1
    52    36    38  ar
    53    38    39  ar
    54    39    40  ar
    55    40    37  ar
    56    41    52   1
    57     1    53   1
    58     1    54   1
    59     2    55   1
    60     4    56   1
    61     4    57   1
    62     4    58   1
    63     6    59   1
    64     7    60   1
    65     8    61   1
    66     8    62   1
    67     9    63   1
    68     9    64   1
    69    11    65   1
    70    12    66   1
    71    14    67   1
    72    15    68   1
    73    17    69   1
    74    18    70   1
    75    18    71   1
    76    19    72   1
    77    20    73   1
    78    20    74   1
    79    21    75   1
    80    22    76   1
    81    22    77   1
    82    22    78   1
    83    23    79   1
    84    23    80   1
    85    24    81   1
    86    24    82   1
    87    25    83   1
    88    25    84   1
    89    28    85   1
    90    28    86   1
    91    31    87   1
    92    32    88   1
    93    33    89   1
    94    34    90   1
    95    35    91   1
    96    37    92   1
    97    38    93   1
    98    39    94   1
    99    40    95   1
   100    42    96   1
   101    43    97   1
   102    45    98   1
   103    46    99   1
@<TRIPOS>SUBSTRUCTURE
     1  L04      1

