@<TRIPOS>MOLECULE
1hfs_ligand_072
    99   103
SMALL
GAST_HUCK
****
This file was generated by PARSER (from files_GN.cpp)

@<TRIPOS>ATOM
      1 C1         30.9876   36.7079   23.6914 C.3         1 L04      -0.0384
      2 C2         32.5267   36.9983   23.7106 C.3         1 L04       0.0141
      3 C3         33.1083   36.8811   22.3444 C.2         1 L04       0.0380
      4 C4         37.8309   42.1181   22.6701 C.3         1 L04      -0.0625
      5 C5         38.5293   31.4357   29.6912 C.ar        1 L04      -0.0257
      6 C6         39.8637   31.5160   30.1612 C.ar        1 L04      -0.0571
      7 C7         34.1424   36.8978   25.8463 C.3         1 L04       0.0523
      8 C8         35.0160   35.9674   26.7482 C.3         1 L04      -0.0232
      9 C9         36.2903   35.3560   26.1065 C.3         1 L04      -0.0166
     10 C10        36.9160   34.3444   26.9998 C.ar        1 L04      -0.0424
     11 C11        36.8097   32.9629   26.7209 C.ar        1 L04      -0.0596
     12 C12        37.3368   32.0053   27.6075 C.ar        1 L04      -0.0610
     13 C13        38.0113   32.4029   28.7900 C.ar        1 L04      -0.0267
     14 C14        38.1378   33.7877   29.0550 C.ar        1 L04      -0.0610
     15 C15        37.5826   34.7413   28.1819 C.ar        1 L04      -0.0596
     16 C16        34.8991   38.0449   25.3474 C.2         1 L04       0.1816
     17 C17        40.3768   30.5365   31.0325 C.ar        1 L04      -0.0282
     18 C18        33.3088   36.1286   24.7628 C.3         1 L04      -0.0186
     19 C19        36.2154   38.9319   23.3812 C.3         1 L04       0.1369
     20 C20        36.2235   40.4188   23.8655 C.3         1 L04      -0.0096
     21 C21        36.3839   41.5540   22.7942 C.3         1 L04      -0.0425
     22 C22        35.7852   41.2003   21.4000 C.3         1 L04      -0.0625
     23 C23        30.0989   37.5860   22.7441 C.3         1 L04      -0.0495
     24 C24        30.0722   39.1066   23.0720 C.3         1 L04      -0.0323
     25 C25        28.9290   39.5361   24.0494 C.3         1 L04       0.0356
     26 C26        29.6281   41.6614   25.0858 C.2         1 L04       0.2046
     27 C27        37.5273   38.4026   23.0433 C.2         1 L04       0.2292
     28 C28        29.4953   39.8503   26.4844 C.3         1 L04       0.0703
     29 C29        29.8927   42.1390   26.3295 C.ar        1 L04       0.0535
     30 C30        39.4222   37.0867   23.6868 C.ar        1 L04       0.0663
     31 C31        40.7194   37.5001   24.0686 C.ar        1 L04      -0.0413
     32 C32        41.8338   36.6724   23.8310 C.ar        1 L04      -0.0755
     33 C33        41.6648   35.4151   23.2186 C.ar        1 L04      -0.0772
     34 C34        40.3734   34.9866   22.8533 C.ar        1 L04      -0.0755
     35 C35        39.2702   35.8198   23.0762 C.ar        1 L04      -0.0413
     36 C36        29.8239   41.0669   27.2206 C.ar        1 L04      -0.0003
     37 C37        30.1573   43.4441   26.7943 C.ar        1 L04      -0.0484
     38 C38        30.0204   41.2577   28.5995 C.ar        1 L04      -0.0524
     39 C39        30.2866   42.5580   29.0739 C.ar        1 L04      -0.0641
     40 C40        30.3514   43.6445   28.1754 C.ar        1 L04      -0.0630
     41 C41        39.5603   29.4773   31.4624 C.ar        1 L04       0.1322
     42 C42        38.2263   29.3996   31.0229 C.ar        1 L04      -0.0282
     43 C43        37.7178   30.3621   30.1380 C.ar        1 L04      -0.0571
     44 N1         29.3684   40.3571   25.1440 N.am        1 L04      -0.2613
     45 N18        35.5785   37.9422   24.2093 N.am        1 L04      -0.2649
     46 N29        38.3363   37.8667   23.9537 N.am        1 L04      -0.2320
     47 O1         29.5885   42.3640   24.0787 O.2         1 L04      -0.3882
     48 O4         33.5915   35.7008   21.8886 O.co2       1 L04      -0.5687
     49 O5         32.9106   37.8678   21.4307 O.co2       1 L04      -0.5687
     50 O17        34.8937   39.0958   25.9957 O.2         1 L04      -0.3966
     51 O28        37.8505   38.4152   21.8549 O.2         1 L04      -0.3823
     52 F1         40.0361   28.5728   32.2719 F           1 L04      -0.1835
     53 H1         30.8225   35.6586   23.4070 H           1 L04       0.0286
     54 H2         30.6025   36.8294   24.7104 H           1 L04       0.0286
     55 H3         32.6102   38.0492   24.0012 H           1 L04       0.0467
     56 H4         37.8488   42.9730   21.9805 H           1 L04       0.0232
     57 H5         38.5297   41.3583   22.2927 H           1 L04       0.0232
     58 H6         38.1822   42.4635   23.6493 H           1 L04       0.0232
     59 H7         40.4754   32.2805   29.8642 H           1 L04       0.0606
     60 H8         33.3750   37.3119   26.5101 H           1 L04       0.0541
     61 H9         34.3851   35.1476   27.0975 H           1 L04       0.0315
     62 H10        35.3132   36.5387   27.6276 H           1 L04       0.0315
     63 H11        37.0294   36.1341   25.9054 H           1 L04       0.0430
     64 H12        36.0303   34.8982   25.1497 H           1 L04       0.0430
     65 H13        36.3296   32.6365   25.8753 H           1 L04       0.0559
     66 H14        37.2231   31.0127   27.3808 H           1 L04       0.0604
     67 H15        38.6043   34.1149   29.9062 H           1 L04       0.0604
     68 H16        37.6656   35.7359   28.4173 H           1 L04       0.0559
     69 H17        41.3482   30.6028   31.3466 H           1 L04       0.0604
     70 H18        33.9664   35.4242   24.2429 H           1 L04       0.0313
     71 H19        32.5905   35.4933   25.3000 H           1 L04       0.0313
     72 H20        35.5947   38.9538   22.4763 H           1 L04       0.0805
     73 H21        36.9931   40.5632   24.6360 H           1 L04       0.0315
     74 H22        35.2543   40.6060   24.3411 H           1 L04       0.0315
     75 H23        35.7794   42.4019   23.1599 H           1 L04       0.0298
     76 H24        34.7986   40.7457   21.5146 H           1 L04       0.0232
     77 H25        36.4360   40.5146   20.8471 H           1 L04       0.0232
     78 H26        35.6675   42.1107   20.8039 H           1 L04       0.0232
     79 H27        29.0673   37.2151   22.7889 H           1 L04       0.0267
     80 H28        30.4302   37.4555   21.7081 H           1 L04       0.0267
     81 H29        29.9364   39.6543   22.1300 H           1 L04       0.0285
     82 H30        31.0465   39.4064   23.4671 H           1 L04       0.0285
     83 H31        28.4217   38.6445   24.4409 H           1 L04       0.0523
     84 H32        28.1596   40.0896   23.4950 H           1 L04       0.0523
     85 H33        30.3005   39.1132   26.5613 H           1 L04       0.0699
     86 H34        28.5521   39.4292   26.8474 H           1 L04       0.0699
     87 H35        40.8631   38.4048   24.5146 H           1 L04       0.0502
     88 H36        42.7736   36.9865   24.0918 H           1 L04       0.0577
     89 H37        42.4782   34.8165   23.0427 H           1 L04       0.0487
     90 H38        40.2518   34.0655   22.4198 H           1 L04       0.0577
     91 H39        38.3404   35.4782   22.8249 H           1 L04       0.0502
     92 H40        30.1938   44.2309   26.1437 H           1 L04       0.0651
     93 H41        29.9626   40.4682   29.2435 H           1 L04       0.0569
     94 H42        30.4249   42.7127   30.0741 H           1 L04       0.0635
     95 H43        30.5307   44.5856   28.5315 H           1 L04       0.0572
     96 H44        37.6185   28.6424   31.3440 H           1 L04       0.0604
     97 H45        36.7428   30.2864   29.8330 H           1 L04       0.0606
     98 H46        35.5915   37.0557   23.8151 H           1 L04       0.1883
     99 H47        38.0802   37.9687   24.8854 H           1 L04       0.2257
@<TRIPOS>BOND
     1     1    23   1
     2     1     2   1
     3     2    18   1
     4     2     3   1
     5     3    49  ar
     6     3    48  ar
     7    18     7   1
     8     7    16   1
     9     7     8   1
    10     8     9   1
    11     9    10   1
    12    10    15  ar
    13    10    11  ar
    14    11    12  ar
    15    12    13  ar
    16    13    14  ar
    17    13     5   1
    18     5    43  ar
    19     5     6  ar
    20     6    17  ar
    21    17    41  ar
    22    41    42  ar
    23    42    43  ar
    24    14    15  ar
    25    16    50   2
    26    16    45  am
    27    45    19   1
    28    19    27   1
    29    19    20   1
    30    20    21   1
    31    21     4   1
    32    21    22   1
    33    27    51   2
    34    27    46  am
    35    46    30   1
    36    30    35  ar
    37    30    31  ar
    38    31    32  ar
    39    32    33  ar
    40    33    34  ar
    41    34    35  ar
    42    23    24   1
    43    24    25   1
    44    25    44   1
    45    44    28   1
    46    44    26  am
    47    26    47   2
    48    26    29   1
    49    29    37  ar
    50    29    36  ar
    51    36    28   1
    52    36    38  ar
    53    38    39  ar
    54    39    40  ar
    55    40    37  ar
    56    41    52   1
    57     1    53   1
    58     1    54   1
    59     2    55   1
    60     4    56   1
    61     4    57   1
    62     4    58   1
    63     6    59   1
    64     7    60   1
    65     8    61   1
    66     8    62   1
    67     9    63   1
    68     9    64   1
    69    11    65   1
    70    12    66   1
    71    14    67   1
    72    15    68   1
    73    17    69   1
    74    18    70   1
    75    18    71   1
    76    19    72   1
    77    20    73   1
    78    20    74   1
    79    21    75   1
    80    22    76   1
    81    22    77   1
    82    22    78   1
    83    23    79   1
    84    23    80   1
    85    24    81   1
    86    24    82   1
    87    25    83   1
    88    25    84   1
    89    28    85   1
    90    28    86   1
    91    31    87   1
    92    32    88   1
    93    33    89   1
    94    34    90   1
    95    35    91   1
    96    37    92   1
    97    38    93   1
    98    39    94   1
    99    40    95   1
   100    42    96   1
   101    43    97   1
   102    45    98   1
   103    46    99   1
@<TRIPOS>SUBSTRUCTURE
     1  L04      1

