@<TRIPOS>MOLECULE
1hfs_ligand_050
    99   103
SMALL
GAST_HUCK
****
This file was generated by PARSER (from files_GN.cpp)

@<TRIPOS>ATOM
      1 C1         29.0650   38.6380   24.4101 C.3         1 L04      -0.0384
      2 C2         29.9047   39.9691   24.5383 C.3         1 L04       0.0141
      3 C3         29.7776   40.5464   25.9102 C.2         1 L04       0.0380
      4 C4         25.3475   39.4884   21.5243 C.3         1 L04      -0.0625
      5 C5         38.3843   39.3041   21.4905 C.ar        1 L04      -0.0257
      6 C6         39.2928   39.1776   22.5703 C.ar        1 L04      -0.0571
      7 C7         30.4727   41.1736   22.0952 C.3         1 L04       0.0523
      8 C8         32.0267   41.4359   22.2269 C.3         1 L04      -0.0232
      9 C9         32.8936   40.3108   22.8599 C.3         1 L04      -0.0166
     10 C10        34.2901   40.1638   22.3675 C.ar        1 L04      -0.0424
     11 C11        35.3152   41.0158   22.8359 C.ar        1 L04      -0.0596
     12 C12        36.6641   40.7528   22.5281 C.ar        1 L04      -0.0610
     13 C13        37.0257   39.6405   21.7277 C.ar        1 L04      -0.0267
     14 C14        35.9898   38.8223   21.2164 C.ar        1 L04      -0.0610
     15 C15        34.6455   39.0785   21.5341 C.ar        1 L04      -0.0596
     16 C16        30.0964   40.1667   21.0967 C.2         1 L04       0.1816
     17 C17        40.6247   38.7873   22.3489 C.ar        1 L04      -0.0282
     18 C18        29.6600   41.0842   23.4452 C.3         1 L04      -0.0186
     19 C19        28.3951   39.1909   19.5877 C.3         1 L04       0.1369
     20 C20        26.8430   39.1829   19.4246 C.3         1 L04      -0.0096
     21 C21        26.0535   38.4767   20.5854 C.3         1 L04      -0.0425
     22 C22        25.0040   37.4715   20.0366 C.3         1 L04      -0.0625
     23 C23        29.4392   37.5890   23.3203 C.3         1 L04      -0.0495
     24 C24        30.8851   37.0097   23.3730 C.3         1 L04      -0.0323
     25 C25        31.0340   35.6126   24.0259 C.3         1 L04       0.0356
     26 C26        33.0615   35.7179   25.3898 C.2         1 L04       0.2046
     27 C27        29.0344   39.5116   18.3117 C.2         1 L04       0.2292
     28 C28        33.3470   34.8741   23.2810 C.3         1 L04       0.0703
     29 C29        34.3956   35.5179   25.2599 C.ar        1 L04       0.0535
     30 C30        30.3990   38.5763   16.5069 C.ar        1 L04       0.0663
     31 C31        31.1862   37.4299   16.2627 C.ar        1 L04      -0.0413
     32 C32        32.0388   37.3646   15.1469 C.ar        1 L04      -0.0755
     33 C33        32.0967   38.4396   14.2421 C.ar        1 L04      -0.0772
     34 C34        31.3067   39.5815   14.4588 C.ar        1 L04      -0.0755
     35 C35        30.4614   39.6482   15.5819 C.ar        1 L04      -0.0413
     36 C36        34.6218   35.0052   23.9875 C.ar        1 L04      -0.0003
     37 C37        35.4626   35.7760   26.1411 C.ar        1 L04      -0.0484
     38 C38        35.9291   34.7388   23.5439 C.ar        1 L04      -0.0524
     39 C39        37.0113   34.9888   24.4151 C.ar        1 L04      -0.0641
     40 C40        36.7771   35.5030   25.7101 C.ar        1 L04      -0.0630
     41 C41        41.0723   38.5131   21.0443 C.ar        1 L04       0.1322
     42 C42        40.1866   38.6438   19.9600 C.ar        1 L04      -0.0282
     43 C43        38.8543   39.0379   20.1798 C.ar        1 L04      -0.0571
     44 N1         32.4313   35.3500   24.2813 N.am        1 L04      -0.2613
     45 N18        28.8457   40.0794   20.6341 N.am        1 L04      -0.2649
     46 N29        29.6260   38.5355   17.6313 N.am        1 L04      -0.2320
     47 O1         32.5503   36.2746   26.3469 O.2         1 L04      -0.3882
     48 O4         28.8729   40.1334   26.8210 O.co2       1 L04      -0.5687
     49 O5         30.7216   41.4107   26.3511 O.co2       1 L04      -0.5687
     50 O17        30.9565   39.4361   20.6171 O.2         1 L04      -0.3966
     51 O28        29.0275   40.6775   17.9387 O.2         1 L04      -0.3823
     52 F1         42.3039   38.1320   20.8404 F           1 L04      -0.1835
     53 H1         29.1176   38.0857   25.3533 H           1 L04       0.0286
     54 H2         28.0189   38.9121   24.2574 H           1 L04       0.0286
     55 H3         30.9406   39.6734   24.5055 H           1 L04       0.0467
     56 H4         24.8609   38.9685   22.3529 H           1 L04       0.0232
     57 H5         24.5879   40.0456   20.9709 H           1 L04       0.0232
     58 H6         26.0729   40.1896   21.9386 H           1 L04       0.0232
     59 H7         38.9793   39.3405   23.5294 H           1 L04       0.0606
     60 H8         30.1200   42.1097   21.6450 H           1 L04       0.0541
     61 H9         32.1845   42.3512   22.8007 H           1 L04       0.0315
     62 H10        32.4128   41.6335   21.2236 H           1 L04       0.0315
     63 H11        32.3788   39.3682   22.7020 H           1 L04       0.0430
     64 H12        32.9483   40.4592   23.9415 H           1 L04       0.0430
     65 H13        35.0919   41.8053   23.4482 H           1 L04       0.0559
     66 H14        37.3883   41.3700   22.9075 H           1 L04       0.0604
     67 H15        36.2090   37.9982   20.6478 H           1 L04       0.0604
     68 H16        33.9287   38.4371   21.1819 H           1 L04       0.0559
     69 H17        41.2638   38.6951   23.1419 H           1 L04       0.0604
     70 H18        29.8197   42.0571   23.9178 H           1 L04       0.0313
     71 H19        28.5971   41.0633   23.2043 H           1 L04       0.0313
     72 H20        28.6817   38.1766   19.8822 H           1 L04       0.0805
     73 H21        26.6177   38.6637   18.4864 H           1 L04       0.0315
     74 H22        26.4916   40.2112   19.2933 H           1 L04       0.0315
     75 H23        26.7462   37.8978   21.2036 H           1 L04       0.0298
     76 H24        25.4870   36.7045   19.4305 H           1 L04       0.0232
     77 H25        24.2789   37.9971   19.4119 H           1 L04       0.0232
     78 H26        24.4786   36.9735   20.8551 H           1 L04       0.0232
     79 H27        29.2643   38.0226   22.3398 H           1 L04       0.0267
     80 H28        28.7348   36.7586   23.4006 H           1 L04       0.0267
     81 H29        31.5283   37.6801   23.9322 H           1 L04       0.0285
     82 H30        31.2836   36.9612   22.3545 H           1 L04       0.0285
     83 H31        30.6165   34.8472   23.3682 H           1 L04       0.0523
     84 H32        30.4587   35.5812   24.9561 H           1 L04       0.0523
     85 H33        33.3467   35.5114   22.3947 H           1 L04       0.0699
     86 H34        33.1413   33.8365   23.0109 H           1 L04       0.0699
     87 H35        31.1476   36.6291   16.8993 H           1 L04       0.0502
     88 H36        32.6009   36.5277   14.9890 H           1 L04       0.0577
     89 H37        32.6872   38.3824   13.4107 H           1 L04       0.0487
     90 H38        31.3287   40.3554   13.7896 H           1 L04       0.0577
     91 H39        29.8800   40.4783   15.6855 H           1 L04       0.0502
     92 H40        35.2942   36.1591   27.0738 H           1 L04       0.0651
     93 H41        36.0936   34.3819   22.6023 H           1 L04       0.0569
     94 H42        37.9682   34.8049   24.1044 H           1 L04       0.0635
     95 H43        37.5638   35.6886   26.3360 H           1 L04       0.0572
     96 H44        40.5124   38.4517   19.0085 H           1 L04       0.0604
     97 H45        38.2282   39.1323   19.3764 H           1 L04       0.0606
     98 H46        28.1811   40.6703   21.0259 H           1 L04       0.1883
     99 H47        29.5192   37.6480   18.0119 H           1 L04       0.2257
@<TRIPOS>BOND
     1     1    23   1
     2     1     2   1
     3     2    18   1
     4     2     3   1
     5     3    49  ar
     6     3    48  ar
     7    18     7   1
     8     7    16   1
     9     7     8   1
    10     8     9   1
    11     9    10   1
    12    10    15  ar
    13    10    11  ar
    14    11    12  ar
    15    12    13  ar
    16    13    14  ar
    17    13     5   1
    18     5    43  ar
    19     5     6  ar
    20     6    17  ar
    21    17    41  ar
    22    41    42  ar
    23    42    43  ar
    24    14    15  ar
    25    16    50   2
    26    16    45  am
    27    45    19   1
    28    19    27   1
    29    19    20   1
    30    20    21   1
    31    21     4   1
    32    21    22   1
    33    27    51   2
    34    27    46  am
    35    46    30   1
    36    30    35  ar
    37    30    31  ar
    38    31    32  ar
    39    32    33  ar
    40    33    34  ar
    41    34    35  ar
    42    23    24   1
    43    24    25   1
    44    25    44   1
    45    44    28   1
    46    44    26  am
    47    26    47   2
    48    26    29   1
    49    29    37  ar
    50    29    36  ar
    51    36    28   1
    52    36    38  ar
    53    38    39  ar
    54    39    40  ar
    55    40    37  ar
    56    41    52   1
    57     1    53   1
    58     1    54   1
    59     2    55   1
    60     4    56   1
    61     4    57   1
    62     4    58   1
    63     6    59   1
    64     7    60   1
    65     8    61   1
    66     8    62   1
    67     9    63   1
    68     9    64   1
    69    11    65   1
    70    12    66   1
    71    14    67   1
    72    15    68   1
    73    17    69   1
    74    18    70   1
    75    18    71   1
    76    19    72   1
    77    20    73   1
    78    20    74   1
    79    21    75   1
    80    22    76   1
    81    22    77   1
    82    22    78   1
    83    23    79   1
    84    23    80   1
    85    24    81   1
    86    24    82   1
    87    25    83   1
    88    25    84   1
    89    28    85   1
    90    28    86   1
    91    31    87   1
    92    32    88   1
    93    33    89   1
    94    34    90   1
    95    35    91   1
    96    37    92   1
    97    38    93   1
    98    39    94   1
    99    40    95   1
   100    42    96   1
   101    43    97   1
   102    45    98   1
   103    46    99   1
@<TRIPOS>SUBSTRUCTURE
     1  L04      1

