@<TRIPOS>MOLECULE
1hfs_ligand_034
    99   103
SMALL
GAST_HUCK
****
This file was generated by PARSER (from files_GN.cpp)

@<TRIPOS>ATOM
      1 C1         32.1599   37.2503   24.5008 C.3         1 L04      -0.0384
      2 C2         33.4680   36.6163   23.9197 C.3         1 L04       0.0141
      3 C3         33.5549   36.8182   22.4462 C.2         1 L04       0.0380
      4 C4         41.6434   35.7367   23.4159 C.3         1 L04      -0.0625
      5 C5         38.9261   31.5946   30.5122 C.ar        1 L04      -0.0257
      6 C6         38.5999   31.9435   31.8431 C.ar        1 L04      -0.0571
      7 C7         35.2396   34.8420   24.8022 C.3         1 L04       0.0523
      8 C8         35.5143   33.3205   25.0875 C.3         1 L04      -0.0232
      9 C9         35.0032   32.8168   26.4793 C.3         1 L04      -0.0166
     10 C10        36.0629   32.4600   27.4707 C.ar        1 L04      -0.0424
     11 C11        37.1855   33.2998   27.6733 C.ar        1 L04      -0.0596
     12 C12        38.1522   32.9975   28.6518 C.ar        1 L04      -0.0610
     13 C13        38.0065   31.8551   29.4708 C.ar        1 L04      -0.0267
     14 C14        36.8936   31.0078   29.2728 C.ar        1 L04      -0.0610
     15 C15        35.9410   31.3052   28.2804 C.ar        1 L04      -0.0596
     16 C16        36.2223   35.3740   23.8515 C.2         1 L04       0.1816
     17 C17        39.5077   31.6909   32.8870 C.ar        1 L04      -0.0282
     18 C18        33.7526   35.1356   24.3902 C.3         1 L04      -0.0186
     19 C19        38.2476   36.7995   23.5454 C.3         1 L04       0.1369
     20 C20        39.1376   35.7697   22.7649 C.3         1 L04      -0.0096
     21 C21        40.5872   36.2642   22.4046 C.3         1 L04      -0.0425
     22 C22        41.0000   35.8937   20.9521 C.3         1 L04      -0.0625
     23 C23        30.8095   36.8887   23.8017 C.3         1 L04      -0.0495
     24 C24        29.6022   37.6272   24.4680 C.3         1 L04      -0.0323
     25 C25        28.4168   37.9931   23.5267 C.3         1 L04       0.0356
     26 C26        29.6097   39.8580   22.3206 C.2         1 L04       0.2046
     27 C27        37.6744   37.8973   22.7592 C.2         1 L04       0.2292
     28 C28        27.4863   39.3497   21.6392 C.3         1 L04       0.0703
     29 C29        29.3562   40.6799   21.2662 C.ar        1 L04       0.0535
     30 C30        36.2620   39.9091   22.9478 C.ar        1 L04       0.0663
     31 C31        35.6319   40.7001   23.9371 C.ar        1 L04      -0.0413
     32 C32        34.8527   41.8187   23.5890 C.ar        1 L04      -0.0755
     33 C33        34.6870   42.1632   22.2370 C.ar        1 L04      -0.0772
     34 C34        35.2868   41.3813   21.2364 C.ar        1 L04      -0.0755
     35 C35        36.0652   40.2616   21.5870 C.ar        1 L04      -0.0413
     36 C36        28.0682   40.4112   20.8204 C.ar        1 L04      -0.0003
     37 C37        30.1518   41.6522   20.6315 C.ar        1 L04      -0.0484
     38 C38        27.5153   41.1093   19.7324 C.ar        1 L04      -0.0524
     39 C39        28.2991   42.0918   19.0928 C.ar        1 L04      -0.0641
     40 C40        29.6124   42.3614   19.5391 C.ar        1 L04      -0.0630
     41 C41        40.7493   31.0857   32.6110 C.ar        1 L04       0.1322
     42 C42        41.0802   30.7336   31.2885 C.ar        1 L04      -0.0282
     43 C43        40.1711   30.9849   30.2428 C.ar        1 L04      -0.0571
     44 N1         28.5744   39.0460   22.5422 N.am        1 L04      -0.2613
     45 N18        37.2123   36.1475   24.2967 N.am        1 L04      -0.2649
     46 N29        36.9757   38.8288   23.4007 N.am        1 L04      -0.2320
     47 O1         30.6617   39.9147   22.9416 O.2         1 L04      -0.3882
     48 O4         33.1387   37.9876   21.9014 O.co2       1 L04      -0.5687
     49 O5         33.9330   35.8400   21.5814 O.co2       1 L04      -0.5687
     50 O17        36.1136   35.0927   22.6639 O.2         1 L04      -0.3966
     51 O28        37.8747   37.9551   21.5524 O.2         1 L04      -0.3823
     52 F1         41.5930   30.8544   33.5800 F           1 L04      -0.1835
     53 H1         32.0939   36.9912   25.5645 H           1 L04       0.0286
     54 H2         32.2813   38.3380   24.4451 H           1 L04       0.0286
     55 H3         34.2753   37.2298   24.3460 H           1 L04       0.0467
     56 H4         42.6303   36.1464   23.1904 H           1 L04       0.0232
     57 H5         41.7021   34.6455   23.3773 H           1 L04       0.0232
     58 H6         41.3735   36.0340   24.4308 H           1 L04       0.0232
     59 H7         37.7002   32.3829   32.0610 H           1 L04       0.0606
     60 H8         35.3977   35.3686   25.7519 H           1 L04       0.0541
     61 H9         36.5875   33.1172   25.0115 H           1 L04       0.0315
     62 H10        35.0471   32.7268   24.2945 H           1 L04       0.0315
     63 H11        34.3474   31.9582   26.3087 H           1 L04       0.0430
     64 H12        34.3787   33.5753   26.9542 H           1 L04       0.0430
     65 H13        37.3093   34.1444   27.1113 H           1 L04       0.0559
     66 H14        38.9500   33.6283   28.7778 H           1 L04       0.0604
     67 H15        36.7583   30.1803   29.8625 H           1 L04       0.0604
     68 H16        35.1372   30.6830   28.1761 H           1 L04       0.0559
     69 H17        39.2623   31.9491   33.8451 H           1 L04       0.0604
     70 H18        33.4308   34.4223   23.6207 H           1 L04       0.0313
     71 H19        33.1341   34.9120   25.2630 H           1 L04       0.0313
     72 H20        38.8875   37.2725   24.2939 H           1 L04       0.0805
     73 H21        38.6079   35.4740   21.8544 H           1 L04       0.0315
     74 H22        39.2091   34.8554   23.3630 H           1 L04       0.0315
     75 H23        40.6150   37.3580   22.4582 H           1 L04       0.0298
     76 H24        40.3178   36.3554   20.2349 H           1 L04       0.0232
     77 H25        40.9770   34.8106   20.8100 H           1 L04       0.0232
     78 H26        42.0090   36.2543   20.7371 H           1 L04       0.0232
     79 H27        30.6495   35.8025   23.8666 H           1 L04       0.0267
     80 H28        30.8866   37.1632   22.7367 H           1 L04       0.0267
     81 H29        29.9317   38.5566   24.9413 H           1 L04       0.0285
     82 H30        29.2195   36.9762   25.2696 H           1 L04       0.0285
     83 H31        27.5864   38.2882   24.1781 H           1 L04       0.0523
     84 H32        28.1085   37.0807   23.0021 H           1 L04       0.0523
     85 H33        26.6056   39.7220   22.1736 H           1 L04       0.0699
     86 H34        27.2213   38.4887   21.0199 H           1 L04       0.0699
     87 H35        35.7382   40.4639   24.9286 H           1 L04       0.0502
     88 H36        34.4056   42.3790   24.3179 H           1 L04       0.0577
     89 H37        34.1249   42.9760   21.9839 H           1 L04       0.0487
     90 H38        35.1501   41.6192   20.2509 H           1 L04       0.0577
     91 H39        36.4520   39.7044   20.8266 H           1 L04       0.0502
     92 H40        31.1026   41.8357   20.9531 H           1 L04       0.0651
     93 H41        26.5685   40.9003   19.4091 H           1 L04       0.0569
     94 H42        27.9179   42.6052   18.2962 H           1 L04       0.0635
     95 H43        30.1766   43.0661   19.0668 H           1 L04       0.0572
     96 H44        41.9809   30.2947   31.0864 H           1 L04       0.0604
     97 H45        40.4230   30.7202   29.2855 H           1 L04       0.0606
     98 H46        37.2190   36.3329   25.2526 H           1 L04       0.1883
     99 H47        36.9560   38.7225   24.3706 H           1 L04       0.2257
@<TRIPOS>BOND
     1     1    23   1
     2     1     2   1
     3     2    18   1
     4     2     3   1
     5     3    49  ar
     6     3    48  ar
     7    18     7   1
     8     7    16   1
     9     7     8   1
    10     8     9   1
    11     9    10   1
    12    10    15  ar
    13    10    11  ar
    14    11    12  ar
    15    12    13  ar
    16    13    14  ar
    17    13     5   1
    18     5    43  ar
    19     5     6  ar
    20     6    17  ar
    21    17    41  ar
    22    41    42  ar
    23    42    43  ar
    24    14    15  ar
    25    16    50   2
    26    16    45  am
    27    45    19   1
    28    19    27   1
    29    19    20   1
    30    20    21   1
    31    21     4   1
    32    21    22   1
    33    27    51   2
    34    27    46  am
    35    46    30   1
    36    30    35  ar
    37    30    31  ar
    38    31    32  ar
    39    32    33  ar
    40    33    34  ar
    41    34    35  ar
    42    23    24   1
    43    24    25   1
    44    25    44   1
    45    44    28   1
    46    44    26  am
    47    26    47   2
    48    26    29   1
    49    29    37  ar
    50    29    36  ar
    51    36    28   1
    52    36    38  ar
    53    38    39  ar
    54    39    40  ar
    55    40    37  ar
    56    41    52   1
    57     1    53   1
    58     1    54   1
    59     2    55   1
    60     4    56   1
    61     4    57   1
    62     4    58   1
    63     6    59   1
    64     7    60   1
    65     8    61   1
    66     8    62   1
    67     9    63   1
    68     9    64   1
    69    11    65   1
    70    12    66   1
    71    14    67   1
    72    15    68   1
    73    17    69   1
    74    18    70   1
    75    18    71   1
    76    19    72   1
    77    20    73   1
    78    20    74   1
    79    21    75   1
    80    22    76   1
    81    22    77   1
    82    22    78   1
    83    23    79   1
    84    23    80   1
    85    24    81   1
    86    24    82   1
    87    25    83   1
    88    25    84   1
    89    28    85   1
    90    28    86   1
    91    31    87   1
    92    32    88   1
    93    33    89   1
    94    34    90   1
    95    35    91   1
    96    37    92   1
    97    38    93   1
    98    39    94   1
    99    40    95   1
   100    42    96   1
   101    43    97   1
   102    45    98   1
   103    46    99   1
@<TRIPOS>SUBSTRUCTURE
     1  L04      1

