@<TRIPOS>MOLECULE
1hfs_ligand_068
    99   103
SMALL
GAST_HUCK
****
This file was generated by PARSER (from files_GN.cpp)

@<TRIPOS>ATOM
      1 C1         33.3133   38.7574   23.9377 C.3         1 L04      -0.0384
      2 C2         32.5633   37.3738   23.8754 C.3         1 L04       0.0141
      3 C3         32.0414   36.9332   25.1800 C.2         1 L04       0.0380
      4 C4         38.5706   41.9606   22.2307 C.3         1 L04      -0.0625
      5 C5         38.1288   33.1279   29.5531 C.ar        1 L04      -0.0257
      6 C6         39.1941   32.1935   29.6458 C.ar        1 L04      -0.0571
      7 C7         34.8285   35.9214   23.6465 C.3         1 L04       0.0523
      8 C8         35.1497   34.3842   23.7333 C.3         1 L04      -0.0232
      9 C9         34.6024   33.6562   25.0011 C.3         1 L04      -0.0166
     10 C10        35.5687   33.5132   26.1322 C.ar        1 L04      -0.0424
     11 C11        35.9224   32.2336   26.6382 C.ar        1 L04      -0.0596
     12 C12        36.7760   32.0990   27.7446 C.ar        1 L04      -0.0610
     13 C13        37.3238   33.2372   28.3882 C.ar        1 L04      -0.0267
     14 C14        36.9934   34.5132   27.8614 C.ar        1 L04      -0.0610
     15 C15        36.1231   34.6449   26.7795 C.ar        1 L04      -0.0596
     16 C16        35.8560   36.5871   22.8452 C.2         1 L04       0.1816
     17 C17        39.9768   32.1034   30.8075 C.ar        1 L04      -0.0282
     18 C18        33.3681   36.2441   23.1434 C.3         1 L04      -0.0186
     19 C19        37.7758   38.1592   22.7675 C.3         1 L04       0.1369
     20 C20        37.4171   39.6893   22.7531 C.3         1 L04      -0.0096
     21 C21        37.9805   40.6551   21.6255 C.3         1 L04      -0.0425
     22 C22        38.9571   40.0555   20.5727 C.3         1 L04      -0.0625
     23 C23        33.0404   39.7547   25.1107 C.3         1 L04      -0.0495
     24 C24        31.7207   40.5952   25.0043 C.3         1 L04      -0.0323
     25 C25        31.8676   41.9560   24.2723 C.3         1 L04       0.0356
     26 C26        33.2209   41.9399   22.2209 C.2         1 L04       0.2046
     27 C27        39.0245   37.7814   23.4410 C.2         1 L04       0.2292
     28 C28        30.9732   41.5579   21.9391 C.3         1 L04       0.0703
     29 C29        33.0450   41.7264   20.8946 C.ar        1 L04       0.0535
     30 C30        41.3244   38.5051   23.9902 C.ar        1 L04       0.0663
     31 C31        42.1024   39.6790   23.9318 C.ar        1 L04      -0.0413
     32 C32        43.4487   39.6811   24.3443 C.ar        1 L04      -0.0755
     33 C33        44.0422   38.4954   24.8062 C.ar        1 L04      -0.0772
     34 C34        43.2874   37.3146   24.8562 C.ar        1 L04      -0.0755
     35 C35        41.9372   37.3095   24.4400 C.ar        1 L04      -0.0413
     36 C36        31.6911   41.4890   20.6675 C.ar        1 L04      -0.0003
     37 C37        33.9633   41.7421   19.8321 C.ar        1 L04      -0.0484
     38 C38        31.2053   41.2614   19.3693 C.ar        1 L04      -0.0524
     39 C39        32.1166   41.2836   18.2944 C.ar        1 L04      -0.0641
     40 C40        33.4899   41.5244   18.5215 C.ar        1 L04      -0.0630
     41 C41        39.7107   32.9375   31.9107 C.ar        1 L04       0.1322
     42 C42        38.6615   33.8764   31.8355 C.ar        1 L04      -0.0282
     43 C43        37.8849   33.9656   30.6731 C.ar        1 L04      -0.0571
     44 N1         32.0558   41.8249   22.8486 N.am        1 L04      -0.2613
     45 N18        36.6842   37.4648   23.4043 N.am        1 L04      -0.2649
     46 N29        40.0364   38.6351   23.5333 N.am        1 L04      -0.2320
     47 O1         34.3090   42.1715   22.7332 O.2         1 L04      -0.3882
     48 O4         32.8498   36.5889   26.1902 O.co2       1 L04      -0.5687
     49 O5         30.7127   36.7750   25.3788 O.co2       1 L04      -0.5687
     50 O17        35.9508   36.2911   21.6608 O.2         1 L04      -0.3966
     51 O28        39.1266   36.6276   23.8588 O.2         1 L04      -0.3823
     52 F1         40.4206   32.8463   33.0007 F           1 L04      -0.1835
     53 H1         34.3989   38.5925   23.9494 H           1 L04       0.0286
     54 H2         33.1300   39.2711   22.9820 H           1 L04       0.0286
     55 H3         31.6824   37.5492   23.2590 H           1 L04       0.0467
     56 H4         38.8368   42.6618   21.4381 H           1 L04       0.0232
     57 H5         39.4669   41.7362   22.8128 H           1 L04       0.0232
     58 H6         37.8396   42.4426   22.8790 H           1 L04       0.0232
     59 H7         39.4104   31.5764   28.8556 H           1 L04       0.0606
     60 H8         34.9010   36.3198   24.6547 H           1 L04       0.0541
     61 H9         36.2260   34.2037   23.6744 H           1 L04       0.0315
     62 H10        34.7247   33.9131   22.8377 H           1 L04       0.0315
     63 H11        34.2651   32.6671   24.6815 H           1 L04       0.0430
     64 H12        33.7132   34.1631   25.3806 H           1 L04       0.0430
     65 H13        35.5364   31.3912   26.2083 H           1 L04       0.0559
     66 H14        36.9759   31.1598   28.0997 H           1 L04       0.0604
     67 H15        37.3790   35.3611   28.2893 H           1 L04       0.0604
     68 H16        35.8840   35.5884   26.4794 H           1 L04       0.0559
     69 H17        40.7473   31.4285   30.8559 H           1 L04       0.0604
     70 H18        33.3920   36.4947   22.0732 H           1 L04       0.0313
     71 H19        32.7750   35.3244   23.1993 H           1 L04       0.0313
     72 H20        37.8653   37.8204   21.7320 H           1 L04       0.0805
     73 H21        37.6688   40.0868   23.7502 H           1 L04       0.0315
     74 H22        36.3230   39.7816   22.6946 H           1 L04       0.0315
     75 H23        37.1146   40.9805   21.0355 H           1 L04       0.0298
     76 H24        38.4733   39.2606   20.0030 H           1 L04       0.0232
     77 H25        39.8628   39.6682   21.0466 H           1 L04       0.0232
     78 H26        39.2592   40.8297   19.8524 H           1 L04       0.0232
     79 H27        33.9142   40.4369   25.1970 H           1 L04       0.0267
     80 H28        33.0226   39.1394   26.0279 H           1 L04       0.0267
     81 H29        31.3930   40.8147   26.0255 H           1 L04       0.0285
     82 H30        30.9304   39.9852   24.5373 H           1 L04       0.0285
     83 H31        32.6911   42.5050   24.7477 H           1 L04       0.0523
     84 H32        30.9601   42.5363   24.4610 H           1 L04       0.0523
     85 H33        30.2510   42.3790   21.9235 H           1 L04       0.0699
     86 H34        30.4752   40.6104   22.1548 H           1 L04       0.0699
     87 H35        41.6971   40.5559   23.5958 H           1 L04       0.0502
     88 H36        43.9979   40.5440   24.2865 H           1 L04       0.0577
     89 H37        45.0154   38.4932   25.1019 H           1 L04       0.0487
     90 H38        43.7203   36.4441   25.1776 H           1 L04       0.0577
     91 H39        41.4326   36.4291   24.4786 H           1 L04       0.0502
     92 H40        34.9584   41.9013   20.0060 H           1 L04       0.0651
     93 H41        30.2146   41.0951   19.2117 H           1 L04       0.0569
     94 H42        31.7854   41.1272   17.3456 H           1 L04       0.0635
     95 H43        34.1481   41.5354   17.7383 H           1 L04       0.0572
     96 H44        38.4646   34.4923   32.6254 H           1 L04       0.0604
     97 H45        37.1154   34.6421   30.6592 H           1 L04       0.0606
     98 H46        36.5651   37.6526   24.3581 H           1 L04       0.1883
     99 H47        39.8290   39.5247   23.2229 H           1 L04       0.2257
@<TRIPOS>BOND
     1     1    23   1
     2     1     2   1
     3     2    18   1
     4     2     3   1
     5     3    49  ar
     6     3    48  ar
     7    18     7   1
     8     7    16   1
     9     7     8   1
    10     8     9   1
    11     9    10   1
    12    10    15  ar
    13    10    11  ar
    14    11    12  ar
    15    12    13  ar
    16    13    14  ar
    17    13     5   1
    18     5    43  ar
    19     5     6  ar
    20     6    17  ar
    21    17    41  ar
    22    41    42  ar
    23    42    43  ar
    24    14    15  ar
    25    16    50   2
    26    16    45  am
    27    45    19   1
    28    19    27   1
    29    19    20   1
    30    20    21   1
    31    21     4   1
    32    21    22   1
    33    27    51   2
    34    27    46  am
    35    46    30   1
    36    30    35  ar
    37    30    31  ar
    38    31    32  ar
    39    32    33  ar
    40    33    34  ar
    41    34    35  ar
    42    23    24   1
    43    24    25   1
    44    25    44   1
    45    44    28   1
    46    44    26  am
    47    26    47   2
    48    26    29   1
    49    29    37  ar
    50    29    36  ar
    51    36    28   1
    52    36    38  ar
    53    38    39  ar
    54    39    40  ar
    55    40    37  ar
    56    41    52   1
    57     1    53   1
    58     1    54   1
    59     2    55   1
    60     4    56   1
    61     4    57   1
    62     4    58   1
    63     6    59   1
    64     7    60   1
    65     8    61   1
    66     8    62   1
    67     9    63   1
    68     9    64   1
    69    11    65   1
    70    12    66   1
    71    14    67   1
    72    15    68   1
    73    17    69   1
    74    18    70   1
    75    18    71   1
    76    19    72   1
    77    20    73   1
    78    20    74   1
    79    21    75   1
    80    22    76   1
    81    22    77   1
    82    22    78   1
    83    23    79   1
    84    23    80   1
    85    24    81   1
    86    24    82   1
    87    25    83   1
    88    25    84   1
    89    28    85   1
    90    28    86   1
    91    31    87   1
    92    32    88   1
    93    33    89   1
    94    34    90   1
    95    35    91   1
    96    37    92   1
    97    38    93   1
    98    39    94   1
    99    40    95   1
   100    42    96   1
   101    43    97   1
   102    45    98   1
   103    46    99   1
@<TRIPOS>SUBSTRUCTURE
     1  L04      1

