@<TRIPOS>MOLECULE
1hfs_ligand_065
    99   103
SMALL
GAST_HUCK
****
This file was generated by PARSER (from files_GN.cpp)

@<TRIPOS>ATOM
      1 C1         34.7396   37.2104   23.7728 C.3         1 L04      -0.0384
      2 C2         33.6525   38.1969   24.3943 C.3         1 L04       0.0141
      3 C3         32.9558   37.6683   25.6058 C.2         1 L04       0.0380
      4 C4         29.7651   38.6357   16.6554 C.3         1 L04      -0.0625
      5 C5         38.7603   38.8990   20.8032 C.ar        1 L04      -0.0257
      6 C6         39.0105   37.6376   21.3847 C.ar        1 L04      -0.0571
      7 C7         32.1505   40.2379   23.4536 C.3         1 L04       0.0523
      8 C8         33.2744   41.3364   23.5020 C.3         1 L04      -0.0232
      9 C9         33.9629   41.7705   22.1647 C.3         1 L04      -0.0166
     10 C10        35.2077   41.0244   21.8211 C.ar        1 L04      -0.0424
     11 C11        35.1503   39.8132   21.0932 C.ar        1 L04      -0.0596
     12 C12        36.3255   39.1012   20.7804 C.ar        1 L04      -0.0610
     13 C13        37.5928   39.6155   21.1349 C.ar        1 L04      -0.0267
     14 C14        37.6590   40.8482   21.8207 C.ar        1 L04      -0.0610
     15 C15        36.4805   41.5360   22.1669 C.ar        1 L04      -0.0596
     16 C16        31.1286   40.6134   22.4619 C.2         1 L04       0.1816
     17 C17        40.1549   36.9034   21.0193 C.ar        1 L04      -0.0282
     18 C18        32.6563   38.7524   23.3125 C.3         1 L04      -0.0186
     19 C19        29.9007   40.1432   20.3411 C.3         1 L04       0.1369
     20 C20        30.1954   39.2082   19.1095 C.3         1 L04      -0.0096
     21 C21        29.9058   39.7902   17.6912 C.3         1 L04      -0.0425
     22 C22        28.6649   40.7223   17.6182 C.3         1 L04      -0.0625
     23 C23        34.6363   35.6780   24.0797 C.3         1 L04      -0.0495
     24 C24        35.6445   35.1935   25.1709 C.3         1 L04      -0.0323
     25 C25        35.0956   34.0731   26.0998 C.3         1 L04       0.0356
     26 C26        37.1074   33.8014   27.5473 C.2         1 L04       0.2046
     27 C27        28.5206   40.0485   20.8070 C.2         1 L04       0.2292
     28 C28        36.0191   31.8854   26.9387 C.3         1 L04       0.0703
     29 C29        37.7993   32.7902   28.1319 C.ar        1 L04       0.0535
     30 C30        26.9028   38.8353   22.1192 C.ar        1 L04       0.0663
     31 C31        26.0418   37.8462   21.5940 C.ar        1 L04      -0.0413
     32 C32        24.7933   37.5972   22.1890 C.ar        1 L04      -0.0755
     33 C33        24.3939   38.3231   23.3226 C.ar        1 L04      -0.0772
     34 C34        25.2592   39.2841   23.8794 C.ar        1 L04      -0.0755
     35 C35        26.5030   39.5504   23.2764 C.ar        1 L04      -0.0413
     36 C36        37.1646   31.5967   27.8020 C.ar        1 L04      -0.0003
     37 C37        38.9555   32.7974   28.9402 C.ar        1 L04      -0.0484
     38 C38        37.6527   30.3686   28.2817 C.ar        1 L04      -0.0524
     39 C39        38.8051   30.3581   29.0951 C.ar        1 L04      -0.0641
     40 C40        39.4585   31.5678   29.4210 C.ar        1 L04      -0.0630
     41 C41        41.0542   37.4223   20.0692 C.ar        1 L04       0.1322
     42 C42        40.8113   38.6825   19.4895 C.ar        1 L04      -0.0282
     43 C43        39.6685   39.4208   19.8557 C.ar        1 L04      -0.0571
     44 N1         36.0929   33.3194   26.8342 N.am        1 L04      -0.2613
     45 N18        30.7973   39.8341   21.4285 N.am        1 L04      -0.2649
     46 N29        28.1207   39.0169   21.5450 N.am        1 L04      -0.2320
     47 O1         37.4106   34.9809   27.6807 O.2         1 L04      -0.3882
     48 O4         33.5994   36.8632   26.4744 O.co2       1 L04      -0.5687
     49 O5         31.6895   38.0377   25.9646 O.co2       1 L04      -0.5687
     50 O17        30.5937   41.7123   22.5858 O.2         1 L04      -0.3966
     51 O28        27.7321   40.9433   20.5054 O.2         1 L04      -0.3823
     52 F1         42.1115   36.7382   19.7247 F           1 L04      -0.1835
     53 H1         34.7493   37.3121   22.6816 H           1 L04       0.0286
     54 H2         35.7270   37.5695   24.0788 H           1 L04       0.0286
     55 H3         34.2299   39.0512   24.7606 H           1 L04       0.0467
     56 H4         29.6660   39.0329   15.6414 H           1 L04       0.0232
     57 H5         28.8813   38.0279   16.8764 H           1 L04       0.0232
     58 H6         30.6464   37.9880   16.6791 H           1 L04       0.0232
     59 H7         38.3626   37.2398   22.0717 H           1 L04       0.0606
     60 H8         31.6457   40.2698   24.4283 H           1 L04       0.0541
     61 H9         34.0461   41.0459   24.2257 H           1 L04       0.0315
     62 H10        32.8111   42.2391   23.9150 H           1 L04       0.0315
     63 H11        34.2349   42.8281   22.2395 H           1 L04       0.0430
     64 H12        33.2427   41.7078   21.3420 H           1 L04       0.0430
     65 H13        34.2488   39.4236   20.8099 H           1 L04       0.0559
     66 H14        36.2486   38.2090   20.2834 H           1 L04       0.0604
     67 H15        38.5702   41.2514   22.0758 H           1 L04       0.0604
     68 H16        36.5584   42.4312   22.6633 H           1 L04       0.0559
     69 H17        40.3291   35.9890   21.4447 H           1 L04       0.0604
     70 H18        31.7815   38.0832   23.2910 H           1 L04       0.0313
     71 H19        33.1048   38.6814   22.3202 H           1 L04       0.0313
     72 H20        30.1295   41.1712   20.0362 H           1 L04       0.0805
     73 H21        29.6518   38.2645   19.2158 H           1 L04       0.0315
     74 H22        31.2581   38.9472   19.1182 H           1 L04       0.0315
     75 H23        30.7765   40.3836   17.3877 H           1 L04       0.0298
     76 H24        28.8501   41.6462   18.1731 H           1 L04       0.0232
     77 H25        27.7840   40.2240   18.0370 H           1 L04       0.0232
     78 H26        28.4521   40.9965   16.5795 H           1 L04       0.0232
     79 H27        34.8558   35.1179   23.1625 H           1 L04       0.0267
     80 H28        33.6104   35.4224   24.3607 H           1 L04       0.0267
     81 H29        35.9297   36.0438   25.8011 H           1 L04       0.0285
     82 H30        36.5542   34.8319   24.6692 H           1 L04       0.0285
     83 H31        34.4980   33.3881   25.4856 H           1 L04       0.0523
     84 H32        34.4126   34.5356   26.8260 H           1 L04       0.0523
     85 H33        36.1348   31.4030   25.9661 H           1 L04       0.0699
     86 H34        35.0874   31.5654   27.4134 H           1 L04       0.0699
     87 H35        26.3176   37.3156   20.7631 H           1 L04       0.0502
     88 H36        24.1728   36.8846   21.7906 H           1 L04       0.0577
     89 H37        23.4875   38.1376   23.7564 H           1 L04       0.0487
     90 H38        24.9832   39.7873   24.7217 H           1 L04       0.0577
     91 H39        27.1287   40.2370   23.6975 H           1 L04       0.0502
     92 H40        39.4239   33.6751   29.1706 H           1 L04       0.0651
     93 H41        37.1884   29.4914   28.0347 H           1 L04       0.0569
     94 H42        39.1764   29.4728   29.4513 H           1 L04       0.0635
     95 H43        40.2970   31.5597   30.0031 H           1 L04       0.0572
     96 H44        41.4625   39.0632   18.8022 H           1 L04       0.0604
     97 H45        39.5003   40.3294   19.4189 H           1 L04       0.0606
     98 H46        31.2632   38.9881   21.3604 H           1 L04       0.1883
     99 H47        28.7477   38.2794   21.6283 H           1 L04       0.2257
@<TRIPOS>BOND
     1     1    23   1
     2     1     2   1
     3     2    18   1
     4     2     3   1
     5     3    49  ar
     6     3    48  ar
     7    18     7   1
     8     7    16   1
     9     7     8   1
    10     8     9   1
    11     9    10   1
    12    10    15  ar
    13    10    11  ar
    14    11    12  ar
    15    12    13  ar
    16    13    14  ar
    17    13     5   1
    18     5    43  ar
    19     5     6  ar
    20     6    17  ar
    21    17    41  ar
    22    41    42  ar
    23    42    43  ar
    24    14    15  ar
    25    16    50   2
    26    16    45  am
    27    45    19   1
    28    19    27   1
    29    19    20   1
    30    20    21   1
    31    21     4   1
    32    21    22   1
    33    27    51   2
    34    27    46  am
    35    46    30   1
    36    30    35  ar
    37    30    31  ar
    38    31    32  ar
    39    32    33  ar
    40    33    34  ar
    41    34    35  ar
    42    23    24   1
    43    24    25   1
    44    25    44   1
    45    44    28   1
    46    44    26  am
    47    26    47   2
    48    26    29   1
    49    29    37  ar
    50    29    36  ar
    51    36    28   1
    52    36    38  ar
    53    38    39  ar
    54    39    40  ar
    55    40    37  ar
    56    41    52   1
    57     1    53   1
    58     1    54   1
    59     2    55   1
    60     4    56   1
    61     4    57   1
    62     4    58   1
    63     6    59   1
    64     7    60   1
    65     8    61   1
    66     8    62   1
    67     9    63   1
    68     9    64   1
    69    11    65   1
    70    12    66   1
    71    14    67   1
    72    15    68   1
    73    17    69   1
    74    18    70   1
    75    18    71   1
    76    19    72   1
    77    20    73   1
    78    20    74   1
    79    21    75   1
    80    22    76   1
    81    22    77   1
    82    22    78   1
    83    23    79   1
    84    23    80   1
    85    24    81   1
    86    24    82   1
    87    25    83   1
    88    25    84   1
    89    28    85   1
    90    28    86   1
    91    31    87   1
    92    32    88   1
    93    33    89   1
    94    34    90   1
    95    35    91   1
    96    37    92   1
    97    38    93   1
    98    39    94   1
    99    40    95   1
   100    42    96   1
   101    43    97   1
   102    45    98   1
   103    46    99   1
@<TRIPOS>SUBSTRUCTURE
     1  L04      1

