@<TRIPOS>MOLECULE
1hfs_ligand_004
    99   103
SMALL
GAST_HUCK
****
This file was generated by PARSER (from files_GN.cpp)

@<TRIPOS>ATOM
      1 C1         31.3263   35.8271   23.8358 C.3         1 L04      -0.0384
      2 C2         32.8077   36.3481   23.8204 C.3         1 L04       0.0141
      3 C3         33.2515   36.7076   22.4478 C.2         1 L04       0.0380
      4 C4         38.7062   39.6046   20.7766 C.3         1 L04      -0.0625
      5 C5         38.8217   30.7938   30.1401 C.ar        1 L04      -0.0257
      6 C6         38.1144   29.8480   30.9231 C.ar        1 L04      -0.0571
      7 C7         35.2192   35.9750   24.8773 C.3         1 L04       0.0523
      8 C8         35.9171   35.2561   26.0837 C.3         1 L04      -0.0232
      9 C9         36.2574   33.7507   25.8630 C.3         1 L04      -0.0166
     10 C10        36.8606   33.0196   27.0204 C.ar        1 L04      -0.0424
     11 C11        36.6683   31.6237   27.1554 C.ar        1 L04      -0.0596
     12 C12        37.3098   30.8926   28.1746 C.ar        1 L04      -0.0610
     13 C13        38.1683   31.5306   29.1016 C.ar        1 L04      -0.0267
     14 C14        38.3621   32.9280   28.9656 C.ar        1 L04      -0.0610
     15 C15        37.7257   33.6548   27.9437 C.ar        1 L04      -0.0596
     16 C16        36.1385   36.1160   23.7401 C.2         1 L04       0.1816
     17 C17        38.7465   29.1548   31.9703 C.ar        1 L04      -0.0282
     18 C18        33.8078   35.3658   24.5383 C.3         1 L04      -0.0186
     19 C19        38.1719   37.1968   22.8371 C.3         1 L04       0.1369
     20 C20        38.8678   38.5586   23.1532 C.3         1 L04      -0.0096
     21 C21        39.6377   39.2360   21.9674 C.3         1 L04      -0.0425
     22 C22        40.4014   40.4960   22.4650 C.3         1 L04      -0.0625
     23 C23        30.5253   36.1865   25.1321 C.3         1 L04      -0.0495
     24 C24        29.5383   37.4021   25.0801 C.3         1 L04      -0.0323
     25 C25        29.9028   38.6877   24.2693 C.3         1 L04       0.0356
     26 C26        32.0895   39.1602   25.3819 C.2         1 L04       0.2046
     27 C27        39.1304   36.0959   22.7046 C.2         1 L04       0.2292
     28 C28        31.5043   40.4873   23.6161 C.3         1 L04       0.0703
     29 C29        33.1863   39.9189   25.1175 C.ar        1 L04       0.0535
     30 C30        40.2927   34.6295   21.1236 C.ar        1 L04       0.0663
     31 C31        40.6085   34.5687   19.7454 C.ar        1 L04      -0.0413
     32 C32        41.4791   33.5853   19.2406 C.ar        1 L04      -0.0755
     33 C33        42.0428   32.6359   20.1072 C.ar        1 L04      -0.0772
     34 C34        41.7311   32.6691   21.4789 C.ar        1 L04      -0.0755
     35 C35        40.8617   33.6561   21.9821 C.ar        1 L04      -0.0413
     36 C36        32.8792   40.7414   24.0335 C.ar        1 L04      -0.0003
     37 C37        34.4815   39.9030   25.6684 C.ar        1 L04      -0.0484
     38 C38        33.8644   41.5610   23.4467 C.ar        1 L04      -0.0524
     39 C39        35.1735   41.5276   23.9724 C.ar        1 L04      -0.0641
     40 C40        35.4849   40.7025   25.0779 C.ar        1 L04      -0.0630
     41 C41        40.1070   29.3763   32.2431 C.ar        1 L04       0.1322
     42 C42        40.8333   30.2949   31.4669 C.ar        1 L04      -0.0282
     43 C43        40.1953   30.9982   30.4294 C.ar        1 L04      -0.0571
     44 N1         31.1356   39.4027   24.4934 N.am        1 L04      -0.2613
     45 N18        37.2014   36.9066   23.8633 N.am        1 L04      -0.2649
     46 N29        39.4172   35.6103   21.5007 N.am        1 L04      -0.2320
     47 O1         32.0870   38.2714   26.2242 O.2         1 L04      -0.3882
     48 O4         33.8079   35.7994   21.6221 O.co2       1 L04      -0.5687
     49 O5         32.9783   37.9378   21.9478 O.co2       1 L04      -0.5687
     50 O17        35.9392   35.4993   22.6978 O.2         1 L04      -0.3966
     51 O28        39.7066   35.7069   23.7126 O.2         1 L04      -0.3823
     52 F1         40.6947   28.7311   33.2138 F           1 L04      -0.1835
     53 H1         30.7647   36.2151   22.9755 H           1 L04       0.0286
     54 H2         31.3372   34.7347   23.7199 H           1 L04       0.0286
     55 H3         32.8147   37.2754   24.3843 H           1 L04       0.0467
     56 H4         39.2461   40.1936   20.0318 H           1 L04       0.0232
     57 H5         37.8506   40.1884   21.1210 H           1 L04       0.0232
     58 H6         38.3414   38.7015   20.2853 H           1 L04       0.0232
     59 H7         37.1192   29.6722   30.7496 H           1 L04       0.0606
     60 H8         35.0142   36.9911   25.2372 H           1 L04       0.0541
     61 H9         35.2789   35.3412   26.9707 H           1 L04       0.0315
     62 H10        36.8419   35.7968   26.3057 H           1 L04       0.0315
     63 H11        36.9584   33.6670   25.0294 H           1 L04       0.0430
     64 H12        35.3345   33.2440   25.5608 H           1 L04       0.0430
     65 H13        36.0788   31.1179   26.4884 H           1 L04       0.0559
     66 H14        37.1655   29.8804   28.2125 H           1 L04       0.0604
     67 H15        38.9661   33.4337   29.6192 H           1 L04       0.0604
     68 H16        37.9115   34.6568   27.8785 H           1 L04       0.0559
     69 H17        38.2106   28.4898   32.5328 H           1 L04       0.0604
     70 H18        33.9269   34.4497   23.9501 H           1 L04       0.0313
     71 H19        33.3491   35.0668   25.4868 H           1 L04       0.0313
     72 H20        37.6137   37.3334   21.9044 H           1 L04       0.0805
     73 H21        39.5590   38.3960   23.9894 H           1 L04       0.0315
     74 H22        38.1062   39.2618   23.5067 H           1 L04       0.0315
     75 H23        40.3910   38.5356   21.5975 H           1 L04       0.0298
     76 H24        41.1203   40.2210   23.2407 H           1 L04       0.0232
     77 H25        39.7063   41.2327   22.8748 H           1 L04       0.0232
     78 H26        40.9568   40.9567   21.6453 H           1 L04       0.0232
     79 H27        31.2209   36.3159   25.9648 H           1 L04       0.0267
     80 H28        29.9238   35.3110   25.4030 H           1 L04       0.0267
     81 H29        29.3028   37.7041   26.1073 H           1 L04       0.0285
     82 H30        28.6041   37.0337   24.6493 H           1 L04       0.0285
     83 H31        29.0976   39.4070   24.4394 H           1 L04       0.0523
     84 H32        29.8575   38.4163   23.2113 H           1 L04       0.0523
     85 H33        30.8693   41.3593   23.7771 H           1 L04       0.0699
     86 H34        31.4758   40.1914   22.5647 H           1 L04       0.0699
     87 H35        40.2110   35.2514   19.0961 H           1 L04       0.0502
     88 H36        41.6995   33.5612   18.2408 H           1 L04       0.0577
     89 H37        42.6752   31.9185   19.7428 H           1 L04       0.0487
     90 H38        42.1312   31.9683   22.1070 H           1 L04       0.0577
     91 H39        40.6278   33.6325   22.9738 H           1 L04       0.0502
     92 H40        34.7073   39.2897   26.4541 H           1 L04       0.0651
     93 H41        33.6441   42.1456   22.6364 H           1 L04       0.0569
     94 H42        35.9135   42.0719   23.5262 H           1 L04       0.0635
     95 H43        36.4388   40.6753   25.4455 H           1 L04       0.0572
     96 H44        41.8263   30.4564   31.6547 H           1 L04       0.0604
     97 H45        40.7508   31.6575   29.8762 H           1 L04       0.0606
     98 H46        37.3065   37.3710   24.7146 H           1 L04       0.1883
     99 H47        38.9814   36.0633   20.7643 H           1 L04       0.2257
@<TRIPOS>BOND
     1     1    23   1
     2     1     2   1
     3     2    18   1
     4     2     3   1
     5     3    49  ar
     6     3    48  ar
     7    18     7   1
     8     7    16   1
     9     7     8   1
    10     8     9   1
    11     9    10   1
    12    10    15  ar
    13    10    11  ar
    14    11    12  ar
    15    12    13  ar
    16    13    14  ar
    17    13     5   1
    18     5    43  ar
    19     5     6  ar
    20     6    17  ar
    21    17    41  ar
    22    41    42  ar
    23    42    43  ar
    24    14    15  ar
    25    16    50   2
    26    16    45  am
    27    45    19   1
    28    19    27   1
    29    19    20   1
    30    20    21   1
    31    21     4   1
    32    21    22   1
    33    27    51   2
    34    27    46  am
    35    46    30   1
    36    30    35  ar
    37    30    31  ar
    38    31    32  ar
    39    32    33  ar
    40    33    34  ar
    41    34    35  ar
    42    23    24   1
    43    24    25   1
    44    25    44   1
    45    44    28   1
    46    44    26  am
    47    26    47   2
    48    26    29   1
    49    29    37  ar
    50    29    36  ar
    51    36    28   1
    52    36    38  ar
    53    38    39  ar
    54    39    40  ar
    55    40    37  ar
    56    41    52   1
    57     1    53   1
    58     1    54   1
    59     2    55   1
    60     4    56   1
    61     4    57   1
    62     4    58   1
    63     6    59   1
    64     7    60   1
    65     8    61   1
    66     8    62   1
    67     9    63   1
    68     9    64   1
    69    11    65   1
    70    12    66   1
    71    14    67   1
    72    15    68   1
    73    17    69   1
    74    18    70   1
    75    18    71   1
    76    19    72   1
    77    20    73   1
    78    20    74   1
    79    21    75   1
    80    22    76   1
    81    22    77   1
    82    22    78   1
    83    23    79   1
    84    23    80   1
    85    24    81   1
    86    24    82   1
    87    25    83   1
    88    25    84   1
    89    28    85   1
    90    28    86   1
    91    31    87   1
    92    32    88   1
    93    33    89   1
    94    34    90   1
    95    35    91   1
    96    37    92   1
    97    38    93   1
    98    39    94   1
    99    40    95   1
   100    42    96   1
   101    43    97   1
   102    45    98   1
   103    46    99   1
@<TRIPOS>SUBSTRUCTURE
     1  L04      1

