@<TRIPOS>MOLECULE
1hfs_ligand_018
    99   103
SMALL
GAST_HUCK
****
This file was generated by PARSER (from files_GN.cpp)

@<TRIPOS>ATOM
      1 C1         31.1332   36.1383   23.8788 C.3         1 L04      -0.0384
      2 C2         32.4485   36.0022   24.7276 C.3         1 L04       0.0141
      3 C3         32.9899   37.3430   25.0422 C.2         1 L04       0.0380
      4 C4         41.2692   35.1222   22.9863 C.3         1 L04      -0.0625
      5 C5         38.5969   30.8690   30.0973 C.ar        1 L04      -0.0257
      6 C6         38.2055   29.7995   30.9384 C.ar        1 L04      -0.0571
      7 C7         34.9953   35.0958   24.5815 C.3         1 L04       0.0523
      8 C8         35.4226   33.7319   25.2263 C.3         1 L04      -0.0232
      9 C9         34.7986   33.4645   26.6309 C.3         1 L04      -0.0166
     10 C10        35.7419   32.7808   27.5543 C.ar        1 L04      -0.0424
     11 C11        36.3523   33.4831   28.6191 C.ar        1 L04      -0.0596
     12 C12        37.2960   32.8538   29.4530 C.ar        1 L04      -0.0610
     13 C13        37.6521   31.4997   29.2474 C.ar        1 L04      -0.0267
     14 C14        37.0428   30.7959   28.1824 C.ar        1 L04      -0.0610
     15 C15        36.1120   31.4349   27.3415 C.ar        1 L04      -0.0596
     16 C16        36.0438   35.5641   23.6647 C.2         1 L04       0.1816
     17 C17        39.1330   29.2095   31.8163 C.ar        1 L04      -0.0282
     18 C18        33.5234   35.1169   23.9869 C.3         1 L04      -0.0186
     19 C19        38.1886   36.8564   23.5020 C.3         1 L04       0.1369
     20 C20        38.8500   35.8760   22.4708 C.3         1 L04      -0.0096
     21 C21        40.3763   36.1303   22.2068 C.3         1 L04      -0.0425
     22 C22        40.7337   36.0946   20.6919 C.3         1 L04      -0.0625
     23 C23        29.9692   37.0273   24.4320 C.3         1 L04      -0.0495
     24 C24        30.3225   38.5236   24.7091 C.3         1 L04      -0.0323
     25 C25        29.1108   39.5037   24.6447 C.3         1 L04       0.0356
     26 C26        29.5168   41.8703   25.2691 C.2         1 L04       0.2046
     27 C27        37.8497   38.1893   23.0033 C.2         1 L04       0.2292
     28 C28        29.2132   40.3816   26.9928 C.3         1 L04       0.0703
     29 C29        29.6238   42.6029   26.4146 C.ar        1 L04       0.0535
     30 C30        36.8020   40.2997   23.5379 C.ar        1 L04       0.0663
     31 C31        37.6204   41.3132   22.9769 C.ar        1 L04      -0.0413
     32 C32        37.0847   42.5726   22.6530 C.ar        1 L04      -0.0755
     33 C33        35.7124   42.8259   22.8556 C.ar        1 L04      -0.0772
     34 C34        34.9021   41.8389   23.4594 C.ar        1 L04      -0.0755
     35 C35        35.4499   40.5948   23.8271 C.ar        1 L04      -0.0413
     36 C36        29.4507   41.7361   27.4906 C.ar        1 L04      -0.0003
     37 C37        29.8656   43.9757   26.6280 C.ar        1 L04      -0.0484
     38 C38        29.5144   42.2029   28.8155 C.ar        1 L04      -0.0524
     39 C39        29.7418   43.5757   29.0409 C.ar        1 L04      -0.0641
     40 C40        29.9138   44.4591   27.9532 C.ar        1 L04      -0.0630
     41 C41        40.4666   29.6525   31.8403 C.ar        1 L04       0.1322
     42 C42        40.8704   30.7001   30.9932 C.ar        1 L04      -0.0282
     43 C43        39.9394   31.3156   30.1389 C.ar        1 L04      -0.0571
     44 N1         29.2676   40.5974   25.5715 N.am        1 L04      -0.2613
     45 N18        37.0560   36.2684   24.1650 N.am        1 L04      -0.2649
     46 N29        37.2541   39.0477   23.8279 N.am        1 L04      -0.2320
     47 O1         29.6432   42.3478   24.1504 O.2         1 L04      -0.3882
     48 O4         32.9901   37.7768   26.3253 O.co2       1 L04      -0.5687
     49 O5         33.5826   38.0888   24.0822 O.co2       1 L04      -0.5687
     50 O17        36.0537   35.2327   22.4839 O.2         1 L04      -0.3966
     51 O28        38.0846   38.4844   21.8362 O.2         1 L04      -0.3823
     52 F1         41.3220   29.1011   32.6518 F           1 L04      -0.1835
     53 H1         31.3796   36.5159   22.8795 H           1 L04       0.0286
     54 H2         30.7240   35.1266   23.7420 H           1 L04       0.0286
     55 H3         32.1836   35.4984   25.6674 H           1 L04       0.0467
     56 H4         42.3283   35.3599   22.8478 H           1 L04       0.0232
     57 H5         41.0953   34.1004   22.6338 H           1 L04       0.0232
     58 H6         41.0531   35.1574   24.0559 H           1 L04       0.0232
     59 H7         37.2359   29.4664   30.9340 H           1 L04       0.0606
     60 H8         35.0294   35.8105   25.4097 H           1 L04       0.0541
     61 H9         36.5130   33.7180   25.3295 H           1 L04       0.0315
     62 H10        35.1647   32.9052   24.5587 H           1 L04       0.0315
     63 H11        33.8959   32.8555   26.5289 H           1 L04       0.0430
     64 H12        34.4775   34.4040   27.0825 H           1 L04       0.0430
     65 H13        36.1249   34.4657   28.7912 H           1 L04       0.0559
     66 H14        37.7182   33.3904   30.2201 H           1 L04       0.0604
     67 H15        37.2977   29.8176   27.9965 H           1 L04       0.0604
     68 H16        35.7064   30.9105   26.5647 H           1 L04       0.0559
     69 H17        38.8286   28.4641   32.4432 H           1 L04       0.0604
     70 H18        33.5472   35.4473   22.9424 H           1 L04       0.0313
     71 H19        33.1361   34.0931   23.9499 H           1 L04       0.0313
     72 H20        38.9209   37.0217   24.2971 H           1 L04       0.0805
     73 H21        38.2963   35.9510   21.5294 H           1 L04       0.0315
     74 H22        38.7278   34.8436   22.8110 H           1 L04       0.0315
     75 H23        40.6446   37.1323   22.5550 H           1 L04       0.0298
     76 H24        40.2009   36.8882   20.1609 H           1 L04       0.0232
     77 H25        40.4597   35.1310   20.2476 H           1 L04       0.0232
     78 H26        41.8044   36.2575   20.5380 H           1 L04       0.0232
     79 H27        29.5754   36.5660   25.3476 H           1 L04       0.0267
     80 H28        29.1701   37.0027   23.6799 H           1 L04       0.0267
     81 H29        31.0715   38.8614   23.9769 H           1 L04       0.0285
     82 H30        30.7639   38.5843   25.7066 H           1 L04       0.0285
     83 H31        28.1778   38.9733   24.8763 H           1 L04       0.0523
     84 H32        29.0071   39.8781   23.6198 H           1 L04       0.0523
     85 H33        29.9977   39.6920   27.3239 H           1 L04       0.0699
     86 H34        28.2265   40.0250   27.3113 H           1 L04       0.0699
     87 H35        38.6155   41.1438   22.8175 H           1 L04       0.0502
     88 H36        37.6905   43.3005   22.2557 H           1 L04       0.0577
     89 H37        35.3072   43.7335   22.5942 H           1 L04       0.0487
     90 H38        33.9080   42.0389   23.6313 H           1 L04       0.0577
     91 H39        34.8416   39.8899   24.2560 H           1 L04       0.0502
     92 H40        29.9978   44.6149   25.8420 H           1 L04       0.0651
     93 H41        29.3958   41.5563   29.5959 H           1 L04       0.0569
     94 H42        29.7976   43.9266   29.9987 H           1 L04       0.0635
     95 H43        30.0788   45.4513   28.1278 H           1 L04       0.0572
     96 H44        41.8390   31.0200   30.9998 H           1 L04       0.0604
     97 H45        40.2471   32.0884   29.5400 H           1 L04       0.0606
     98 H46        37.0060   36.4618   25.1122 H           1 L04       0.1883
     99 H47        37.0001   38.6999   24.7004 H           1 L04       0.2257
@<TRIPOS>BOND
     1     1    23   1
     2     1     2   1
     3     2    18   1
     4     2     3   1
     5     3    49  ar
     6     3    48  ar
     7    18     7   1
     8     7    16   1
     9     7     8   1
    10     8     9   1
    11     9    10   1
    12    10    15  ar
    13    10    11  ar
    14    11    12  ar
    15    12    13  ar
    16    13    14  ar
    17    13     5   1
    18     5    43  ar
    19     5     6  ar
    20     6    17  ar
    21    17    41  ar
    22    41    42  ar
    23    42    43  ar
    24    14    15  ar
    25    16    50   2
    26    16    45  am
    27    45    19   1
    28    19    27   1
    29    19    20   1
    30    20    21   1
    31    21     4   1
    32    21    22   1
    33    27    51   2
    34    27    46  am
    35    46    30   1
    36    30    35  ar
    37    30    31  ar
    38    31    32  ar
    39    32    33  ar
    40    33    34  ar
    41    34    35  ar
    42    23    24   1
    43    24    25   1
    44    25    44   1
    45    44    28   1
    46    44    26  am
    47    26    47   2
    48    26    29   1
    49    29    37  ar
    50    29    36  ar
    51    36    28   1
    52    36    38  ar
    53    38    39  ar
    54    39    40  ar
    55    40    37  ar
    56    41    52   1
    57     1    53   1
    58     1    54   1
    59     2    55   1
    60     4    56   1
    61     4    57   1
    62     4    58   1
    63     6    59   1
    64     7    60   1
    65     8    61   1
    66     8    62   1
    67     9    63   1
    68     9    64   1
    69    11    65   1
    70    12    66   1
    71    14    67   1
    72    15    68   1
    73    17    69   1
    74    18    70   1
    75    18    71   1
    76    19    72   1
    77    20    73   1
    78    20    74   1
    79    21    75   1
    80    22    76   1
    81    22    77   1
    82    22    78   1
    83    23    79   1
    84    23    80   1
    85    24    81   1
    86    24    82   1
    87    25    83   1
    88    25    84   1
    89    28    85   1
    90    28    86   1
    91    31    87   1
    92    32    88   1
    93    33    89   1
    94    34    90   1
    95    35    91   1
    96    37    92   1
    97    38    93   1
    98    39    94   1
    99    40    95   1
   100    42    96   1
   101    43    97   1
   102    45    98   1
   103    46    99   1
@<TRIPOS>SUBSTRUCTURE
     1  L04      1

