@<TRIPOS>MOLECULE
1hfs_ligand_021
    99   103
SMALL
GAST_HUCK
****
This file was generated by PARSER (from files_GN.cpp)

@<TRIPOS>ATOM
      1 C1         34.2389   37.8128   25.7549 C.3         1 L04      -0.0384
      2 C2         33.5730   36.8554   24.7085 C.3         1 L04       0.0141
      3 C3         32.0930   37.0111   24.7501 C.2         1 L04       0.0380
      4 C4         38.0601   39.4985   20.9054 C.3         1 L04      -0.0625
      5 C5         38.8966   31.6443   30.6243 C.ar        1 L04      -0.0257
      6 C6         38.5800   32.0392   31.9426 C.ar        1 L04      -0.0571
      7 C7         35.3950   34.8841   24.9376 C.3         1 L04       0.0523
      8 C8         35.5496   33.3270   25.0633 C.3         1 L04      -0.0232
      9 C9         35.1103   32.7108   26.4323 C.3         1 L04      -0.0166
     10 C10        36.1643   32.4248   27.4523 C.ar        1 L04      -0.0424
     11 C11        36.0130   31.2921   28.2881 C.ar        1 L04      -0.0596
     12 C12        36.9201   31.0273   29.3285 C.ar        1 L04      -0.0610
     13 C13        38.0009   31.9011   29.5648 C.ar        1 L04      -0.0267
     14 C14        38.1636   33.0368   28.7470 C.ar        1 L04      -0.0610
     15 C15        37.2493   33.2975   27.7057 C.ar        1 L04      -0.0596
     16 C16        36.1174   35.3773   23.7652 C.2         1 L04       0.1816
     17 C17        39.4768   31.7734   32.9975 C.ar        1 L04      -0.0282
     18 C18        33.8903   35.3344   24.9190 C.3         1 L04      -0.0186
     19 C19        37.9019   36.8282   22.8637 C.3         1 L04       0.1369
     20 C20        38.3353   38.2927   23.1933 C.3         1 L04      -0.0096
     21 C21        39.0478   39.0653   22.0290 C.3         1 L04      -0.0425
     22 C22        39.8213   40.3058   22.5567 C.3         1 L04      -0.0625
     23 C23        34.4331   39.2917   25.3100 C.3         1 L04      -0.0495
     24 C24        33.1807   40.0303   24.7551 C.3         1 L04      -0.0323
     25 C25        33.2671   41.5773   24.8509 C.3         1 L04       0.0356
     26 C26        33.7595   42.4461   27.1124 C.2         1 L04       0.2046
     27 C27        39.0418   35.9286   22.7026 C.2         1 L04       0.2292
     28 C28        31.5453   42.1855   26.5865 C.3         1 L04       0.0703
     29 C29        33.0711   42.8577   28.2122 C.ar        1 L04       0.0535
     30 C30        40.3026   34.5381   21.1411 C.ar        1 L04       0.0663
     31 C31        40.6695   34.5555   19.7749 C.ar        1 L04      -0.0413
     32 C32        41.6864   33.7145   19.2877 C.ar        1 L04      -0.0755
     33 C33        42.3435   32.8289   20.1583 C.ar        1 L04      -0.0772
     34 C34        41.9753   32.7777   21.5147 C.ar        1 L04      -0.0755
     35 C35        40.9586   33.6221   22.0006 C.ar        1 L04      -0.0413
     36 C36        31.7133   42.7195   27.9334 C.ar        1 L04      -0.0003
     37 C37        33.5010   43.3410   29.4632 C.ar        1 L04      -0.0484
     38 C38        30.7369   43.0545   28.8868 C.ar        1 L04      -0.0524
     39 C39        31.1544   43.5392   30.1434 C.ar        1 L04      -0.0641
     40 C40        32.5309   43.6809   30.4314 C.ar        1 L04      -0.0630
     41 C41        40.6868   31.1026   32.7414 C.ar        1 L04       0.1322
     42 C42        41.0061   30.7035   31.4294 C.ar        1 L04      -0.0282
     43 C43        40.1139   30.9732   30.3735 C.ar        1 L04      -0.0571
     44 N1         32.9139   42.0573   26.1644 N.am        1 L04      -0.2613
     45 N18        37.0539   36.3162   23.9041 N.am        1 L04      -0.2649
     46 N29        39.2973   35.3857   21.5168 N.am        1 L04      -0.2320
     47 O1         34.9798   42.4415   27.0388 O.2         1 L04      -0.3882
     48 O4         31.4128   36.8142   25.9083 O.co2       1 L04      -0.5687
     49 O5         31.3930   37.2990   23.6261 O.co2       1 L04      -0.5687
     50 O17        35.8278   34.9415   22.6546 O.2         1 L04      -0.3966
     51 O28        39.7756   35.7438   23.6664 O.2         1 L04      -0.3823
     52 F1         41.5193   30.8595   33.7173 F           1 L04      -0.1835
     53 H1         33.6778   37.7951   26.6953 H           1 L04       0.0286
     54 H2         35.2416   37.4495   25.9850 H           1 L04       0.0286
     55 H3         33.9206   37.1285   23.7068 H           1 L04       0.0467
     56 H4         38.5870   40.0526   20.1247 H           1 L04       0.0232
     57 H5         37.2724   40.1375   21.3103 H           1 L04       0.0232
     58 H6         37.5982   38.6293   20.4360 H           1 L04       0.0232
     59 H7         37.7022   32.5246   32.1465 H           1 L04       0.0606
     60 H8         35.8486   35.3084   25.8361 H           1 L04       0.0541
     61 H9         36.5891   33.0365   24.8653 H           1 L04       0.0315
     62 H10        34.9449   32.8706   24.2696 H           1 L04       0.0315
     63 H11        34.5960   31.7763   26.1915 H           1 L04       0.0430
     64 H12        34.3719   33.3409   26.9238 H           1 L04       0.0430
     65 H13        35.2224   30.6559   28.1609 H           1 L04       0.0559
     66 H14        36.7746   30.2038   29.9190 H           1 L04       0.0604
     67 H15        38.9285   33.6961   28.9144 H           1 L04       0.0604
     68 H16        37.3900   34.1378   27.1434 H           1 L04       0.0559
     69 H17        39.2446   32.0746   33.9477 H           1 L04       0.0604
     70 H18        33.3730   34.7657   24.1340 H           1 L04       0.0313
     71 H19        33.4335   35.0449   25.8683 H           1 L04       0.0313
     72 H20        37.3142   36.8724   21.9422 H           1 L04       0.0805
     73 H21        38.9915   38.2667   24.0681 H           1 L04       0.0315
     74 H22        37.4498   38.8615   23.4882 H           1 L04       0.0315
     75 H23        39.7927   38.4039   21.5733 H           1 L04       0.0298
     76 H24        40.5916   39.9978   23.2654 H           1 L04       0.0232
     77 H25        39.1435   41.0021   23.0535 H           1 L04       0.0232
     78 H26        40.3161   40.8279   21.7347 H           1 L04       0.0232
     79 H27        35.2193   39.3249   24.5460 H           1 L04       0.0267
     80 H28        34.8149   39.8272   26.1843 H           1 L04       0.0267
     81 H29        32.2930   39.6927   25.2900 H           1 L04       0.0285
     82 H30        33.0590   39.7501   23.7043 H           1 L04       0.0285
     83 H31        32.5776   42.0117   24.1218 H           1 L04       0.0523
     84 H32        34.2708   41.9022   24.5595 H           1 L04       0.0523
     85 H33        31.0342   41.2227   26.6240 H           1 L04       0.0699
     86 H34        30.9934   42.8876   25.9582 H           1 L04       0.0699
     87 H35        40.2023   35.1905   19.1244 H           1 L04       0.0502
     88 H36        41.9464   33.7462   18.2981 H           1 L04       0.0577
     89 H37        43.0823   32.2158   19.8052 H           1 L04       0.0487
     90 H38        42.4408   32.1215   22.1452 H           1 L04       0.0577
     91 H39        40.6853   33.5370   22.9799 H           1 L04       0.0502
     92 H40        34.4969   43.4376   29.6743 H           1 L04       0.0651
     93 H41        29.7424   42.9431   28.6770 H           1 L04       0.0569
     94 H42        30.4570   43.7893   30.8516 H           1 L04       0.0635
     95 H43        32.8251   44.0337   31.3463 H           1 L04       0.0572
     96 H44        41.8868   30.2194   31.2381 H           1 L04       0.0604
     97 H45        40.3539   30.6708   29.4258 H           1 L04       0.0606
     98 H46        37.1991   36.6710   24.8001 H           1 L04       0.1883
     99 H47        38.7241   35.6840   20.7947 H           1 L04       0.2257
@<TRIPOS>BOND
     1     1    23   1
     2     1     2   1
     3     2    18   1
     4     2     3   1
     5     3    49  ar
     6     3    48  ar
     7    18     7   1
     8     7    16   1
     9     7     8   1
    10     8     9   1
    11     9    10   1
    12    10    15  ar
    13    10    11  ar
    14    11    12  ar
    15    12    13  ar
    16    13    14  ar
    17    13     5   1
    18     5    43  ar
    19     5     6  ar
    20     6    17  ar
    21    17    41  ar
    22    41    42  ar
    23    42    43  ar
    24    14    15  ar
    25    16    50   2
    26    16    45  am
    27    45    19   1
    28    19    27   1
    29    19    20   1
    30    20    21   1
    31    21     4   1
    32    21    22   1
    33    27    51   2
    34    27    46  am
    35    46    30   1
    36    30    35  ar
    37    30    31  ar
    38    31    32  ar
    39    32    33  ar
    40    33    34  ar
    41    34    35  ar
    42    23    24   1
    43    24    25   1
    44    25    44   1
    45    44    28   1
    46    44    26  am
    47    26    47   2
    48    26    29   1
    49    29    37  ar
    50    29    36  ar
    51    36    28   1
    52    36    38  ar
    53    38    39  ar
    54    39    40  ar
    55    40    37  ar
    56    41    52   1
    57     1    53   1
    58     1    54   1
    59     2    55   1
    60     4    56   1
    61     4    57   1
    62     4    58   1
    63     6    59   1
    64     7    60   1
    65     8    61   1
    66     8    62   1
    67     9    63   1
    68     9    64   1
    69    11    65   1
    70    12    66   1
    71    14    67   1
    72    15    68   1
    73    17    69   1
    74    18    70   1
    75    18    71   1
    76    19    72   1
    77    20    73   1
    78    20    74   1
    79    21    75   1
    80    22    76   1
    81    22    77   1
    82    22    78   1
    83    23    79   1
    84    23    80   1
    85    24    81   1
    86    24    82   1
    87    25    83   1
    88    25    84   1
    89    28    85   1
    90    28    86   1
    91    31    87   1
    92    32    88   1
    93    33    89   1
    94    34    90   1
    95    35    91   1
    96    37    92   1
    97    38    93   1
    98    39    94   1
    99    40    95   1
   100    42    96   1
   101    43    97   1
   102    45    98   1
   103    46    99   1
@<TRIPOS>SUBSTRUCTURE
     1  L04      1

