@<TRIPOS>MOLECULE
1hfs_ligand_048
    99   103
SMALL
GAST_HUCK
****
This file was generated by PARSER (from files_GN.cpp)

@<TRIPOS>ATOM
      1 C1         31.5776   40.4342   19.4791 C.3         1 L04      -0.0384
      2 C2         31.9881   40.8918   20.9393 C.3         1 L04       0.0141
      3 C3         33.3557   41.4732   20.9945 C.2         1 L04       0.0380
      4 C4         25.3106   37.8607   19.3964 C.3         1 L04      -0.0625
      5 C5         35.3708   35.0883   26.6744 C.ar        1 L04      -0.0257
      6 C6         35.7634   33.8293   26.1330 C.ar        1 L04      -0.0571
      7 C7         30.5359   38.9216   22.0938 C.3         1 L04       0.0523
      8 C8         30.7508   37.6534   22.9859 C.3         1 L04      -0.0232
      9 C9         30.8044   37.8995   24.5335 C.3         1 L04      -0.0166
     10 C10        31.9453   37.1916   25.1683 C.ar        1 L04      -0.0424
     11 C11        33.0338   37.8986   25.7355 C.ar        1 L04      -0.0596
     12 C12        34.1536   37.2134   26.2329 C.ar        1 L04      -0.0610
     13 C13        34.2360   35.7945   26.1788 C.ar        1 L04      -0.0267
     14 C14        33.1360   35.0961   25.6131 C.ar        1 L04      -0.0610
     15 C15        32.0101   35.7792   25.1253 C.ar        1 L04      -0.0596
     16 C16        29.3071   39.6220   22.4710 C.2         1 L04       0.1816
     17 C17        36.8595   33.1256   26.6606 C.ar        1 L04      -0.0282
     18 C18        31.8579   39.7811   22.0336 C.3         1 L04      -0.0186
     19 C19        26.8520   39.4357   22.7514 C.3         1 L04       0.1369
     20 C20        25.8782   38.7064   21.7668 C.3         1 L04      -0.0096
     21 C21        26.3266   38.6500   20.2647 C.3         1 L04      -0.0425
     22 C22        26.5784   40.0611   19.6694 C.3         1 L04      -0.0625
     23 C23        30.2151   41.0217   18.9777 C.3         1 L04      -0.0495
     24 C24        30.4065   42.2301   17.9931 C.3         1 L04      -0.0323
     25 C25        29.5205   43.4732   18.3054 C.3         1 L04       0.0356
     26 C26        29.6108   45.9255   18.3086 C.2         1 L04       0.2046
     27 C27        26.5341   39.2891   24.1681 C.2         1 L04       0.2292
     28 C28        31.3343   44.9226   17.1836 C.3         1 L04       0.0703
     29 C29        30.4571   46.9362   17.9626 C.ar        1 L04       0.0535
     30 C30        24.8582   39.1066   25.8923 C.ar        1 L04       0.0663
     31 C31        23.7986   39.9381   26.3225 C.ar        1 L04      -0.0413
     32 C32        23.3257   39.8620   27.6441 C.ar        1 L04      -0.0755
     33 C33        23.8821   38.9349   28.5431 C.ar        1 L04      -0.0772
     34 C34        24.9190   38.0840   28.1201 C.ar        1 L04      -0.0755
     35 C35        25.4019   38.1630   26.8035 C.ar        1 L04      -0.0413
     36 C36        31.5162   46.3741   17.2628 C.ar        1 L04      -0.0003
     37 C37        30.4145   48.3162   18.2356 C.ar        1 L04      -0.0484
     38 C38        32.5923   47.1686   16.8235 C.ar        1 L04      -0.0524
     39 C39        32.5758   48.5504   17.1046 C.ar        1 L04      -0.0641
     40 C40        31.4833   49.1248   17.7910 C.ar        1 L04      -0.0630
     41 C41        37.5936   33.6591   27.7398 C.ar        1 L04       0.1322
     42 C42        37.2303   34.9109   28.2773 C.ar        1 L04      -0.0282
     43 C43        36.1340   35.6134   27.7521 C.ar        1 L04      -0.0571
     44 N1         30.1109   44.7502   17.9372 N.am        1 L04      -0.2613
     45 N18        28.1725   38.9267   22.5108 N.am        1 L04      -0.2649
     46 N29        25.2761   39.2324   24.6092 N.am        1 L04      -0.2320
     47 O1         28.5909   46.1048   18.9606 O.2         1 L04      -0.3882
     48 O4         33.7226   42.2095   22.0718 O.co2       1 L04      -0.5687
     49 O5         34.3557   40.9213   20.2572 O.co2       1 L04      -0.5687
     50 O17        29.3200   40.8129   22.7750 O.2         1 L04      -0.3966
     51 O28        27.4521   39.4064   24.9781 O.2         1 L04      -0.3823
     52 F1         38.6099   33.0022   28.2351 F           1 L04      -0.1835
     53 H1         32.3673   40.6886   18.7600 H           1 L04       0.0286
     54 H2         31.5020   39.3438   19.4451 H           1 L04       0.0286
     55 H3         31.3374   41.7182   21.2448 H           1 L04       0.0467
     56 H4         25.6687   37.7903   18.3645 H           1 L04       0.0232
     57 H5         24.3327   38.3477   19.3964 H           1 L04       0.0232
     58 H6         25.1925   36.8420   19.7766 H           1 L04       0.0232
     59 H7         35.2523   33.4262   25.3379 H           1 L04       0.0606
     60 H8         30.3636   38.5348   21.0886 H           1 L04       0.0541
     61 H9         31.6748   37.1654   22.6490 H           1 L04       0.0315
     62 H10        29.9501   36.9332   22.7882 H           1 L04       0.0315
     63 H11        29.8743   37.5490   24.9927 H           1 L04       0.0430
     64 H12        30.8569   38.9644   24.7534 H           1 L04       0.0430
     65 H13        33.0319   38.9262   25.7563 H           1 L04       0.0559
     66 H14        34.9376   37.7580   26.6066 H           1 L04       0.0604
     67 H15        33.1506   34.0711   25.5676 H           1 L04       0.0604
     68 H16        31.2433   35.2423   24.7100 H           1 L04       0.0559
     69 H17        37.1262   32.2225   26.2538 H           1 L04       0.0604
     70 H18        31.9915   40.2550   23.0165 H           1 L04       0.0313
     71 H19        32.6934   39.0877   21.8837 H           1 L04       0.0313
     72 H20        26.8124   40.5052   22.5247 H           1 L04       0.0805
     73 H21        24.8945   39.1902   21.8066 H           1 L04       0.0315
     74 H22        25.7526   37.6751   22.1218 H           1 L04       0.0315
     75 H23        27.2659   38.0973   20.2015 H           1 L04       0.0298
     76 H24        27.3150   40.6083   20.2590 H           1 L04       0.0232
     77 H25        25.6522   40.6423   19.6409 H           1 L04       0.0232
     78 H26        26.9736   39.9711   18.6553 H           1 L04       0.0232
     79 H27        29.6074   41.3299   19.8477 H           1 L04       0.0267
     80 H28        29.6549   40.2299   18.4534 H           1 L04       0.0267
     81 H29        30.1756   41.8905   16.9709 H           1 L04       0.0285
     82 H30        31.4575   42.5596   18.0318 H           1 L04       0.0285
     83 H31        29.3257   43.4968   19.3863 H           1 L04       0.0523
     84 H32        28.5541   43.3735   17.8039 H           1 L04       0.0523
     85 H33        31.2160   44.5999   16.1442 H           1 L04       0.0699
     86 H34        32.1867   44.4170   17.6562 H           1 L04       0.0699
     87 H35        23.3867   40.6172   25.6787 H           1 L04       0.0502
     88 H36        22.5781   40.4894   27.9504 H           1 L04       0.0577
     89 H37        23.5327   38.8792   29.5028 H           1 L04       0.0487
     90 H38        25.3219   37.4039   28.7731 H           1 L04       0.0577
     91 H39        26.1442   37.5254   26.5068 H           1 L04       0.0502
     92 H40        29.6259   48.7230   18.7462 H           1 L04       0.0651
     93 H41        33.3852   46.7530   16.3258 H           1 L04       0.0569
     94 H42        33.3538   49.1381   16.8051 H           1 L04       0.0635
     95 H43        31.4725   50.1221   17.9957 H           1 L04       0.0572
     96 H44        37.7599   35.3065   29.0587 H           1 L04       0.0604
     97 H45        35.8760   36.5133   28.1734 H           1 L04       0.0606
     98 H46        28.2394   37.9754   22.3291 H           1 L04       0.1883
     99 H47        24.5845   39.3764   23.9454 H           1 L04       0.2257
@<TRIPOS>BOND
     1     1    23   1
     2     1     2   1
     3     2    18   1
     4     2     3   1
     5     3    49  ar
     6     3    48  ar
     7    18     7   1
     8     7    16   1
     9     7     8   1
    10     8     9   1
    11     9    10   1
    12    10    15  ar
    13    10    11  ar
    14    11    12  ar
    15    12    13  ar
    16    13    14  ar
    17    13     5   1
    18     5    43  ar
    19     5     6  ar
    20     6    17  ar
    21    17    41  ar
    22    41    42  ar
    23    42    43  ar
    24    14    15  ar
    25    16    50   2
    26    16    45  am
    27    45    19   1
    28    19    27   1
    29    19    20   1
    30    20    21   1
    31    21     4   1
    32    21    22   1
    33    27    51   2
    34    27    46  am
    35    46    30   1
    36    30    35  ar
    37    30    31  ar
    38    31    32  ar
    39    32    33  ar
    40    33    34  ar
    41    34    35  ar
    42    23    24   1
    43    24    25   1
    44    25    44   1
    45    44    28   1
    46    44    26  am
    47    26    47   2
    48    26    29   1
    49    29    37  ar
    50    29    36  ar
    51    36    28   1
    52    36    38  ar
    53    38    39  ar
    54    39    40  ar
    55    40    37  ar
    56    41    52   1
    57     1    53   1
    58     1    54   1
    59     2    55   1
    60     4    56   1
    61     4    57   1
    62     4    58   1
    63     6    59   1
    64     7    60   1
    65     8    61   1
    66     8    62   1
    67     9    63   1
    68     9    64   1
    69    11    65   1
    70    12    66   1
    71    14    67   1
    72    15    68   1
    73    17    69   1
    74    18    70   1
    75    18    71   1
    76    19    72   1
    77    20    73   1
    78    20    74   1
    79    21    75   1
    80    22    76   1
    81    22    77   1
    82    22    78   1
    83    23    79   1
    84    23    80   1
    85    24    81   1
    86    24    82   1
    87    25    83   1
    88    25    84   1
    89    28    85   1
    90    28    86   1
    91    31    87   1
    92    32    88   1
    93    33    89   1
    94    34    90   1
    95    35    91   1
    96    37    92   1
    97    38    93   1
    98    39    94   1
    99    40    95   1
   100    42    96   1
   101    43    97   1
   102    45    98   1
   103    46    99   1
@<TRIPOS>SUBSTRUCTURE
     1  L04      1

