@<TRIPOS>MOLECULE
1hfs_ligand_064
    99   103
SMALL
GAST_HUCK
****
This file was generated by PARSER (from files_GN.cpp)

@<TRIPOS>ATOM
      1 C1         36.0031   40.3901   22.4505 C.3         1 L04      -0.0384
      2 C2         35.9022   38.8293   22.2711 C.3         1 L04       0.0141
      3 C3         37.0240   38.2753   21.4824 C.2         1 L04       0.0380
      4 C4         26.6130   39.5471   21.7960 C.3         1 L04      -0.0625
      5 C5         35.9098   33.7140   27.2589 C.ar        1 L04      -0.0257
      6 C6         35.4877   32.3661   27.4194 C.ar        1 L04      -0.0571
      7 C7         33.2274   38.1994   22.4621 C.3         1 L04       0.0523
      8 C8         33.1624   38.7078   23.9553 C.3         1 L04      -0.0232
      9 C9         32.4258   37.7358   24.9337 C.3         1 L04      -0.0166
     10 C10        33.3169   36.6857   25.5099 C.ar        1 L04      -0.0424
     11 C11        34.2368   37.0255   26.5255 C.ar        1 L04      -0.0596
     12 C12        35.0800   36.0537   27.0935 C.ar        1 L04      -0.0610
     13 C13        35.0489   34.7022   26.6656 C.ar        1 L04      -0.0267
     14 C14        34.1287   34.3740   25.6374 C.ar        1 L04      -0.0610
     15 C15        33.2692   35.3418   25.0775 C.ar        1 L04      -0.0596
     16 C16        32.0952   38.7221   21.6863 C.2         1 L04       0.1816
     17 C17        36.3240   31.4014   28.0124 C.ar        1 L04      -0.0282
     18 C18        34.5448   38.3974   21.6142 C.3         1 L04      -0.0186
     19 C19        30.0699   38.3073   20.2938 C.3         1 L04       0.1369
     20 C20        29.0750   39.1379   21.1729 C.3         1 L04      -0.0096
     21 C21        27.6158   39.3153   20.6297 C.3         1 L04      -0.0425
     22 C22        27.4834   40.4777   19.6069 C.3         1 L04      -0.0625
     23 C23        37.3896   40.9851   22.8453 C.3         1 L04      -0.0495
     24 C24        38.2876   41.4031   21.6340 C.3         1 L04      -0.0323
     25 C25        39.8146   41.1776   21.8211 C.3         1 L04       0.0356
     26 C26        40.2625   39.0321   20.6793 C.2         1 L04       0.2046
     27 C27        30.4266   38.9268   19.0177 C.2         1 L04       0.2292
     28 C28        40.6187   39.0663   22.9421 C.3         1 L04       0.0703
     29 C29        40.5931   37.7548   21.0212 C.ar        1 L04       0.0535
     30 C30        30.3533   38.8598   16.6286 C.ar        1 L04       0.0663
     31 C31        29.5743   39.8420   15.9813 C.ar        1 L04      -0.0413
     32 C32        29.9567   40.3423   14.7217 C.ar        1 L04      -0.0755
     33 C33        31.1176   39.8514   14.0943 C.ar        1 L04      -0.0772
     34 C34        31.8862   38.8537   14.7195 C.ar        1 L04      -0.0755
     35 C35        31.5057   38.3569   15.9808 C.ar        1 L04      -0.0413
     36 C36        40.8083   37.7245   22.3946 C.ar        1 L04      -0.0003
     37 C37        40.6706   36.5717   20.2605 C.ar        1 L04      -0.0484
     38 C38        41.1101   36.5196   23.0596 C.ar        1 L04      -0.0524
     39 C39        41.1512   35.3245   22.3135 C.ar        1 L04      -0.0641
     40 C40        40.9335   35.3507   20.9168 C.ar        1 L04      -0.0630
     41 C41        37.6029   31.7605   28.4709 C.ar        1 L04       0.1322
     42 C42        38.0448   33.0869   28.3272 C.ar        1 L04      -0.0282
     43 C43        37.2126   34.0455   27.7183 C.ar        1 L04      -0.0571
     44 N1         40.2126   39.7933   21.7718 N.am        1 L04      -0.2613
     45 N18        31.2345   37.9253   21.0600 N.am        1 L04      -0.2649
     46 N29        30.0202   38.3944   17.8670 N.am        1 L04      -0.2320
     47 O1         40.0145   39.3854   19.5344 O.2         1 L04      -0.3882
     48 O4         37.7739   37.2649   21.9855 O.co2       1 L04      -0.5687
     49 O5         37.1459   38.5527   20.1608 O.co2       1 L04      -0.5687
     50 O17        32.0155   39.9398   21.5730 O.2         1 L04      -0.3966
     51 O28        31.0817   39.9620   19.0156 O.2         1 L04      -0.3823
     52 F1         38.3771   30.8676   29.0256 F           1 L04      -0.1835
     53 H1         35.6662   40.8923   21.5373 H           1 L04       0.0286
     54 H2         35.2878   40.6779   23.2263 H           1 L04       0.0286
     55 H3         35.9701   38.3724   23.2651 H           1 L04       0.0467
     56 H4         25.5954   39.6525   21.4132 H           1 L04       0.0232
     57 H5         26.8710   40.4506   22.3537 H           1 L04       0.0232
     58 H6         26.6253   38.6973   22.4826 H           1 L04       0.0232
     59 H7         34.5544   32.0697   27.1265 H           1 L04       0.0606
     60 H8         33.1028   37.1151   22.5214 H           1 L04       0.0541
     61 H9         32.6634   39.6812   24.0024 H           1 L04       0.0315
     62 H10        34.1692   38.8807   24.3423 H           1 L04       0.0315
     63 H11        31.5706   37.2844   24.4202 H           1 L04       0.0430
     64 H12        32.0025   38.3168   25.7571 H           1 L04       0.0430
     65 H13        34.2931   37.9839   26.8729 H           1 L04       0.0559
     66 H14        35.7035   36.3473   27.8489 H           1 L04       0.0604
     67 H15        34.0818   33.4225   25.2655 H           1 L04       0.0604
     68 H16        32.6210   35.0590   24.3416 H           1 L04       0.0559
     69 H17        35.9931   30.4379   28.1164 H           1 L04       0.0604
     70 H18        34.7010   37.4393   21.1006 H           1 L04       0.0313
     71 H19        34.3765   39.1003   20.7915 H           1 L04       0.0313
     72 H20        29.5685   37.3629   20.0800 H           1 L04       0.0805
     73 H21        29.4915   40.1253   21.3791 H           1 L04       0.0315
     74 H22        29.0158   38.6185   22.1359 H           1 L04       0.0315
     75 H23        27.3172   38.3890   20.1285 H           1 L04       0.0298
     76 H24        28.0755   40.2794   18.7177 H           1 L04       0.0232
     77 H25        27.8204   41.4204   20.0457 H           1 L04       0.0232
     78 H26        26.4453   40.5940   19.2907 H           1 L04       0.0232
     79 H27        37.9025   40.2574   23.4818 H           1 L04       0.0267
     80 H28        37.2296   41.8774   23.4630 H           1 L04       0.0267
     81 H29        38.1240   42.4701   21.4443 H           1 L04       0.0285
     82 H30        37.9763   40.8860   20.7286 H           1 L04       0.0285
     83 H31        40.1042   41.6213   22.7762 H           1 L04       0.0523
     84 H32        40.3544   41.7247   21.0434 H           1 L04       0.0523
     85 H33        39.8325   39.0636   23.7016 H           1 L04       0.0699
     86 H34        41.5515   39.4576   23.3554 H           1 L04       0.0699
     87 H35        28.7281   40.2062   16.4243 H           1 L04       0.0502
     88 H36        29.3952   41.0637   14.2665 H           1 L04       0.0577
     89 H37        31.3962   40.2185   13.1808 H           1 L04       0.0487
     90 H38        32.7224   38.4918   14.2587 H           1 L04       0.0577
     91 H39        32.0759   37.6376   16.4284 H           1 L04       0.0502
     92 H40        40.4969   36.5877   19.2550 H           1 L04       0.0651
     93 H41        41.2660   36.5062   24.0706 H           1 L04       0.0569
     94 H42        41.3161   34.4353   22.7848 H           1 L04       0.0635
     95 H43        40.9440   34.4798   20.3846 H           1 L04       0.0572
     96 H44        38.9729   33.3586   28.6639 H           1 L04       0.0604
     97 H45        37.5829   34.9923   27.6091 H           1 L04       0.0606
     98 H46        31.3790   36.9679   21.1658 H           1 L04       0.1883
     99 H47        29.4630   37.5966   17.9064 H           1 L04       0.2257
@<TRIPOS>BOND
     1     1    23   1
     2     1     2   1
     3     2    18   1
     4     2     3   1
     5     3    49  ar
     6     3    48  ar
     7    18     7   1
     8     7    16   1
     9     7     8   1
    10     8     9   1
    11     9    10   1
    12    10    15  ar
    13    10    11  ar
    14    11    12  ar
    15    12    13  ar
    16    13    14  ar
    17    13     5   1
    18     5    43  ar
    19     5     6  ar
    20     6    17  ar
    21    17    41  ar
    22    41    42  ar
    23    42    43  ar
    24    14    15  ar
    25    16    50   2
    26    16    45  am
    27    45    19   1
    28    19    27   1
    29    19    20   1
    30    20    21   1
    31    21     4   1
    32    21    22   1
    33    27    51   2
    34    27    46  am
    35    46    30   1
    36    30    35  ar
    37    30    31  ar
    38    31    32  ar
    39    32    33  ar
    40    33    34  ar
    41    34    35  ar
    42    23    24   1
    43    24    25   1
    44    25    44   1
    45    44    28   1
    46    44    26  am
    47    26    47   2
    48    26    29   1
    49    29    37  ar
    50    29    36  ar
    51    36    28   1
    52    36    38  ar
    53    38    39  ar
    54    39    40  ar
    55    40    37  ar
    56    41    52   1
    57     1    53   1
    58     1    54   1
    59     2    55   1
    60     4    56   1
    61     4    57   1
    62     4    58   1
    63     6    59   1
    64     7    60   1
    65     8    61   1
    66     8    62   1
    67     9    63   1
    68     9    64   1
    69    11    65   1
    70    12    66   1
    71    14    67   1
    72    15    68   1
    73    17    69   1
    74    18    70   1
    75    18    71   1
    76    19    72   1
    77    20    73   1
    78    20    74   1
    79    21    75   1
    80    22    76   1
    81    22    77   1
    82    22    78   1
    83    23    79   1
    84    23    80   1
    85    24    81   1
    86    24    82   1
    87    25    83   1
    88    25    84   1
    89    28    85   1
    90    28    86   1
    91    31    87   1
    92    32    88   1
    93    33    89   1
    94    34    90   1
    95    35    91   1
    96    37    92   1
    97    38    93   1
    98    39    94   1
    99    40    95   1
   100    42    96   1
   101    43    97   1
   102    45    98   1
   103    46    99   1
@<TRIPOS>SUBSTRUCTURE
     1  L04      1

