@<TRIPOS>MOLECULE
1hfs_ligand_057
    99   103
SMALL
GAST_HUCK
****
This file was generated by PARSER (from files_GN.cpp)

@<TRIPOS>ATOM
      1 C1         32.8220   37.3515   23.0592 C.3         1 L04      -0.0384
      2 C2         32.6855   36.1637   24.0822 C.3         1 L04       0.0141
      3 C3         32.4336   36.5453   25.4994 C.2         1 L04       0.0380
      4 C4         35.7458   39.6582   22.6979 C.3         1 L04      -0.0625
      5 C5         38.8886   32.2842   30.7822 C.ar        1 L04      -0.0257
      6 C6         39.9017   31.3584   30.4398 C.ar        1 L04      -0.0571
      7 C7         35.3119   35.6127   24.3609 C.3         1 L04       0.0523
      8 C8         36.0546   34.6692   25.3680 C.3         1 L04      -0.0232
      9 C9         35.4680   34.6750   26.8126 C.3         1 L04      -0.0166
     10 C10        36.3734   34.0365   27.8095 C.ar        1 L04      -0.0424
     11 C11        36.2920   32.6543   28.0952 C.ar        1 L04      -0.0596
     12 C12        37.1322   32.0668   29.0628 C.ar        1 L04      -0.0610
     13 C13        38.0601   32.8551   29.7821 C.ar        1 L04      -0.0267
     14 C14        38.1489   34.2339   29.4889 C.ar        1 L04      -0.0610
     15 C15        37.3289   34.8141   28.5052 C.ar        1 L04      -0.0596
     16 C16        36.1832   35.8711   23.2069 C.2         1 L04       0.1816
     17 C17        40.7535   30.8302   31.4294 C.ar        1 L04      -0.0282
     18 C18        33.8492   35.1195   23.9951 C.3         1 L04      -0.0186
     19 C19        38.1428   37.1323   22.3222 C.3         1 L04       0.1369
     20 C20        37.6603   38.3590   21.4748 C.3         1 L04      -0.0096
     21 C21        37.2124   39.6870   22.1817 C.3         1 L04      -0.0425
     22 C22        38.1815   40.1877   23.2877 C.3         1 L04      -0.0625
     23 C23        32.2474   38.7261   23.5087 C.3         1 L04      -0.0495
     24 C24        32.0021   39.7331   22.3483 C.3         1 L04      -0.0323
     25 C25        32.1049   41.2297   22.7644 C.3         1 L04       0.0356
     26 C26        32.0455   41.8889   25.1380 C.2         1 L04       0.2046
     27 C27        39.4697   37.2950   22.9165 C.2         1 L04       0.2292
     28 C28        30.0082   41.5523   24.1422 C.3         1 L04       0.0703
     29 C29        31.1226   42.1236   26.1081 C.ar        1 L04       0.0535
     30 C30        41.7944   37.9320   22.4259 C.ar        1 L04       0.0663
     31 C31        42.5145   38.5985   21.4070 C.ar        1 L04      -0.0413
     32 C32        43.8556   38.9833   21.5936 C.ar        1 L04      -0.0755
     33 C33        44.5085   38.6909   22.8008 C.ar        1 L04      -0.0772
     34 C34        43.8187   38.0136   23.8204 C.ar        1 L04      -0.0755
     35 C35        42.4752   37.6335   23.6351 C.ar        1 L04      -0.0413
     36 C36        29.8631   41.9239   25.5508 C.ar        1 L04      -0.0003
     37 C37        31.2638   42.4996   27.4584 C.ar        1 L04      -0.0484
     38 C38        28.6989   42.0752   26.3255 C.ar        1 L04      -0.0524
     39 C39        28.8268   42.4417   27.6826 C.ar        1 L04      -0.0641
     40 C40        30.1037   42.6551   28.2455 C.ar        1 L04      -0.0630
     41 C41        40.5923   31.2087   32.7758 C.ar        1 L04       0.1322
     42 C42        39.5808   32.1227   33.1299 C.ar        1 L04      -0.0282
     43 C43        38.7386   32.6595   32.1386 C.ar        1 L04      -0.0571
     44 N1         31.4384   41.5578   24.0029 N.am        1 L04      -0.2613
     45 N18        37.1354   36.7978   23.2999 N.am        1 L04      -0.2649
     46 N29        40.4957   37.6133   22.1304 N.am        1 L04      -0.2320
     47 O1         33.2526   41.9503   25.3267 O.2         1 L04      -0.3882
     48 O4         33.2956   37.2913   26.2146 O.co2       1 L04      -0.5687
     49 O5         31.2300   36.3168   26.0696 O.co2       1 L04      -0.5687
     50 O17        36.0630   35.2106   22.1836 O.2         1 L04      -0.3966
     51 O28        39.6058   37.1487   24.1240 O.2         1 L04      -0.3823
     52 F1         41.3819   30.7184   33.6920 F           1 L04      -0.1835
     53 H1         33.8748   37.5208   22.8057 H           1 L04       0.0286
     54 H2         32.3244   37.0517   22.1312 H           1 L04       0.0286
     55 H3         31.7862   35.6149   23.7738 H           1 L04       0.0467
     56 H4         35.4560   40.6571   23.0379 H           1 L04       0.0232
     57 H5         35.6196   38.9606   23.5285 H           1 L04       0.0232
     58 H6         35.0745   39.3674   21.8878 H           1 L04       0.0232
     59 H7         40.0420   31.0786   29.4643 H           1 L04       0.0606
     60 H8         35.2144   36.5728   24.8679 H           1 L04       0.0541
     61 H9         37.1049   34.9766   25.4432 H           1 L04       0.0315
     62 H10        36.0422   33.6455   24.9808 H           1 L04       0.0315
     63 H11        34.5014   34.1667   26.8269 H           1 L04       0.0430
     64 H12        35.2765   35.7087   27.1177 H           1 L04       0.0430
     65 H13        35.6125   32.0658   27.6040 H           1 L04       0.0559
     66 H14        37.0416   31.0658   29.2566 H           1 L04       0.0604
     67 H15        38.8166   34.8267   29.9873 H           1 L04       0.0604
     68 H16        37.4255   35.8126   28.3062 H           1 L04       0.0559
     69 H17        41.4919   30.1724   31.1671 H           1 L04       0.0604
     70 H18        33.8275   34.6905   22.9877 H           1 L04       0.0313
     71 H19        33.5727   34.2841   24.6471 H           1 L04       0.0313
     72 H20        38.2484   36.2951   21.6241 H           1 L04       0.0805
     73 H21        36.8316   38.0184   20.8447 H           1 L04       0.0315
     74 H22        38.4580   38.6181   20.7746 H           1 L04       0.0315
     75 H23        37.2293   40.4608   21.4033 H           1 L04       0.0298
     76 H24        39.2052   40.2204   22.9028 H           1 L04       0.0232
     77 H25        38.1406   39.5299   24.1600 H           1 L04       0.0232
     78 H26        37.9018   41.1976   23.6071 H           1 L04       0.0232
     79 H27        32.9559   39.1522   24.2248 H           1 L04       0.0267
     80 H28        31.2962   38.5724   24.0226 H           1 L04       0.0267
     81 H29        31.0100   39.5443   21.9298 H           1 L04       0.0285
     82 H30        32.7264   39.5595   21.5447 H           1 L04       0.0285
     83 H31        31.6877   41.8493   21.9654 H           1 L04       0.0523
     84 H32        33.1677   41.4802   22.8242 H           1 L04       0.0523
     85 H33        29.5825   40.5634   23.9584 H           1 L04       0.0699
     86 H34        29.5380   42.2964   23.4955 H           1 L04       0.0699
     87 H35        42.0608   38.8260   20.5197 H           1 L04       0.0502
     88 H36        44.3570   39.4720   20.8490 H           1 L04       0.0577
     89 H37        45.4832   38.9673   22.9398 H           1 L04       0.0487
     90 H38        44.2966   37.7871   24.6969 H           1 L04       0.0577
     91 H39        42.0140   37.1241   24.3892 H           1 L04       0.0502
     92 H40        32.1890   42.6580   27.8637 H           1 L04       0.0651
     93 H41        27.7766   41.9184   25.9141 H           1 L04       0.0569
     94 H42        27.9903   42.5498   28.2606 H           1 L04       0.0635
     95 H43        30.1886   42.9221   29.2289 H           1 L04       0.0572
     96 H44        39.4590   32.4018   34.1069 H           1 L04       0.0604
     97 H45        38.0095   33.3233   32.4158 H           1 L04       0.0606
     98 H46        37.1484   37.3154   24.1220 H           1 L04       0.1883
     99 H47        40.2645   37.7109   21.1940 H           1 L04       0.2257
@<TRIPOS>BOND
     1     1    23   1
     2     1     2   1
     3     2    18   1
     4     2     3   1
     5     3    49  ar
     6     3    48  ar
     7    18     7   1
     8     7    16   1
     9     7     8   1
    10     8     9   1
    11     9    10   1
    12    10    15  ar
    13    10    11  ar
    14    11    12  ar
    15    12    13  ar
    16    13    14  ar
    17    13     5   1
    18     5    43  ar
    19     5     6  ar
    20     6    17  ar
    21    17    41  ar
    22    41    42  ar
    23    42    43  ar
    24    14    15  ar
    25    16    50   2
    26    16    45  am
    27    45    19   1
    28    19    27   1
    29    19    20   1
    30    20    21   1
    31    21     4   1
    32    21    22   1
    33    27    51   2
    34    27    46  am
    35    46    30   1
    36    30    35  ar
    37    30    31  ar
    38    31    32  ar
    39    32    33  ar
    40    33    34  ar
    41    34    35  ar
    42    23    24   1
    43    24    25   1
    44    25    44   1
    45    44    28   1
    46    44    26  am
    47    26    47   2
    48    26    29   1
    49    29    37  ar
    50    29    36  ar
    51    36    28   1
    52    36    38  ar
    53    38    39  ar
    54    39    40  ar
    55    40    37  ar
    56    41    52   1
    57     1    53   1
    58     1    54   1
    59     2    55   1
    60     4    56   1
    61     4    57   1
    62     4    58   1
    63     6    59   1
    64     7    60   1
    65     8    61   1
    66     8    62   1
    67     9    63   1
    68     9    64   1
    69    11    65   1
    70    12    66   1
    71    14    67   1
    72    15    68   1
    73    17    69   1
    74    18    70   1
    75    18    71   1
    76    19    72   1
    77    20    73   1
    78    20    74   1
    79    21    75   1
    80    22    76   1
    81    22    77   1
    82    22    78   1
    83    23    79   1
    84    23    80   1
    85    24    81   1
    86    24    82   1
    87    25    83   1
    88    25    84   1
    89    28    85   1
    90    28    86   1
    91    31    87   1
    92    32    88   1
    93    33    89   1
    94    34    90   1
    95    35    91   1
    96    37    92   1
    97    38    93   1
    98    39    94   1
    99    40    95   1
   100    42    96   1
   101    43    97   1
   102    45    98   1
   103    46    99   1
@<TRIPOS>SUBSTRUCTURE
     1  L04      1

