@<TRIPOS>MOLECULE
1hfs_ligand_031
    99   103
SMALL
GAST_HUCK
****
This file was generated by PARSER (from files_GN.cpp)

@<TRIPOS>ATOM
      1 C1         33.6485   36.2173   23.5080 C.3         1 L04      -0.0384
      2 C2         32.7231   37.4137   23.9374 C.3         1 L04       0.0141
      3 C3         32.4901   37.4809   25.3976 C.2         1 L04       0.0380
      4 C4         25.6495   37.0311   21.9048 C.3         1 L04      -0.0625
      5 C5         31.0488   39.9700   14.3489 C.ar        1 L04      -0.0257
      6 C6         30.0002   40.6483   13.6953 C.ar        1 L04      -0.0571
      7 C7         31.0992   38.9198   22.4290 C.3         1 L04       0.0523
      8 C8         31.0871   38.7747   20.8787 C.3         1 L04      -0.0232
      9 C9         31.2134   40.1073   20.0814 C.3         1 L04      -0.0166
     10 C10        31.1908   40.0164   18.6037 C.ar        1 L04      -0.0424
     11 C11        31.4094   41.1999   17.8694 C.ar        1 L04      -0.0596
     12 C12        31.3731   41.1849   16.4640 C.ar        1 L04      -0.0610
     13 C13        31.1311   39.9855   15.7569 C.ar        1 L04      -0.0267
     14 C14        30.9228   38.7853   16.4891 C.ar        1 L04      -0.0610
     15 C15        30.9435   38.8098   17.8888 C.ar        1 L04      -0.0596
     16 C16        29.8971   39.5963   22.9074 C.2         1 L04       0.1816
     17 C17        29.9052   40.6250   12.2954 C.ar        1 L04      -0.0282
     18 C18        31.3542   37.5292   23.1462 C.3         1 L04      -0.0186
     19 C19        27.4230   39.5202   23.1913 C.3         1 L04       0.1369
     20 C20        26.4235   39.5197   21.9946 C.3         1 L04      -0.0096
     21 C21        26.2721   38.2232   21.1288 C.3         1 L04      -0.0425
     22 C22        25.4478   38.5164   19.8420 C.3         1 L04      -0.0625
     23 C23        33.2292   34.8118   24.0665 C.3         1 L04      -0.0495
     24 C24        34.0819   33.6472   23.5061 C.3         1 L04      -0.0323
     25 C25        35.5762   33.6298   23.9366 C.3         1 L04       0.0356
     26 C26        36.4734   34.4297   26.0978 C.2         1 L04       0.2046
     27 C27        26.9417   38.8517   24.4072 C.2         1 L04       0.2292
     28 C28        35.4341   32.3923   26.1342 C.3         1 L04       0.0703
     29 C29        36.6092   33.9796   27.3700 C.ar        1 L04       0.0535
     30 C30        25.2509   39.0078   26.2027 C.ar        1 L04       0.0663
     31 C31        25.5788   37.9047   27.0350 C.ar        1 L04      -0.0413
     32 C32        24.9062   37.6962   28.2543 C.ar        1 L04      -0.0755
     33 C33        23.8831   38.5734   28.6624 C.ar        1 L04      -0.0772
     34 C34        23.5422   39.6698   27.8508 C.ar        1 L04      -0.0755
     35 C35        24.2250   39.8836   26.6312 C.ar        1 L04      -0.0413
     36 C36        35.9786   32.7397   27.4436 C.ar        1 L04      -0.0003
     37 C37        37.2548   34.5292   28.4987 C.ar        1 L04      -0.0484
     38 C38        35.9739   32.0020   28.6418 C.ar        1 L04      -0.0524
     39 C39        36.6201   32.5364   29.7764 C.ar        1 L04      -0.0641
     40 C40        37.2618   33.7939   29.7018 C.ar        1 L04      -0.0630
     41 C41        30.8637   39.9253   11.5331 C.ar        1 L04       0.1322
     42 C42        31.9056   39.2379   12.1827 C.ar        1 L04      -0.0282
     43 C43        31.9935   39.2451   13.5836 C.ar        1 L04      -0.0571
     44 N1         35.8057   33.5465   25.3648 N.am        1 L04      -0.2613
     45 N18        28.7027   39.0106   22.7643 N.am        1 L04      -0.2649
     46 N29        25.8627   39.3312   25.0157 N.am        1 L04      -0.2320
     47 O1         36.9376   35.4953   25.7093 O.2         1 L04      -0.3882
     48 O4         31.5883   36.6734   25.9977 O.co2       1 L04      -0.5687
     49 O5         33.4238   38.0315   26.2076 O.co2       1 L04      -0.5687
     50 O17        29.9930   40.6977   23.4377 O.2         1 L04      -0.3966
     51 O28        27.6198   37.9640   24.9198 O.2         1 L04      -0.3823
     52 F1         30.7907   39.9253   10.2348 F           1 L04      -0.1835
     53 H1         33.6805   36.1547   22.4131 H           1 L04       0.0286
     54 H2         34.6711   36.4305   23.8394 H           1 L04       0.0286
     55 H3         33.3319   38.2941   23.7097 H           1 L04       0.0467
     56 H4         25.4628   36.1888   21.2328 H           1 L04       0.0232
     57 H5         24.7041   37.3189   22.3717 H           1 L04       0.0232
     58 H6         26.3355   36.6900   22.6796 H           1 L04       0.0232
     59 H7         29.2900   41.1562   14.2377 H           1 L04       0.0606
     60 H8         31.9439   39.5839   22.6514 H           1 L04       0.0541
     61 H9         30.1631   38.2534   20.5915 H           1 L04       0.0315
     62 H10        31.9332   38.1320   20.5979 H           1 L04       0.0315
     63 H11        32.1596   40.5551   20.3860 H           1 L04       0.0430
     64 H12        30.4127   40.7703   20.4081 H           1 L04       0.0430
     65 H13        31.5952   42.0846   18.3519 H           1 L04       0.0559
     66 H14        31.5184   42.0555   15.9564 H           1 L04       0.0604
     67 H15        30.7274   37.9034   16.0160 H           1 L04       0.0604
     68 H16        30.7712   37.9211   18.3629 H           1 L04       0.0559
     69 H17        29.1456   41.1222   11.8298 H           1 L04       0.0604
     70 H18        30.5015   37.2795   23.8072 H           1 L04       0.0313
     71 H19        31.3158   36.7245   22.3997 H           1 L04       0.0313
     72 H20        27.5329   40.5724   23.4819 H           1 L04       0.0805
     73 H21        26.7682   40.3067   21.3282 H           1 L04       0.0315
     74 H22        25.4325   39.8129   22.3454 H           1 L04       0.0315
     75 H23        27.2665   37.9168   20.7911 H           1 L04       0.0298
     76 H24        25.9186   39.3083   19.2602 H           1 L04       0.0232
     77 H25        24.4317   38.8290   20.0994 H           1 L04       0.0232
     78 H26        25.3899   37.6260   19.2093 H           1 L04       0.0232
     79 H27        32.1758   34.6026   23.8226 H           1 L04       0.0267
     80 H28        33.3328   34.8101   25.1575 H           1 L04       0.0267
     81 H29        34.0513   33.6710   22.4140 H           1 L04       0.0285
     82 H30        33.6302   32.6983   23.8071 H           1 L04       0.0285
     83 H31        36.0867   34.5002   23.5068 H           1 L04       0.0523
     84 H32        36.0486   32.7537   23.4895 H           1 L04       0.0523
     85 H33        35.9089   31.4842   25.7552 H           1 L04       0.0699
     86 H34        34.3526   32.2588   26.1934 H           1 L04       0.0699
     87 H35        26.2983   37.2301   26.7758 H           1 L04       0.0502
     88 H36        25.1530   36.8972   28.8398 H           1 L04       0.0577
     89 H37        23.4008   38.4140   29.5456 H           1 L04       0.0487
     90 H38        22.8004   40.3066   28.1444 H           1 L04       0.0577
     91 H39        23.9571   40.6938   26.0608 H           1 L04       0.0502
     92 H40        37.7288   35.4333   28.4385 H           1 L04       0.0651
     93 H41        35.5203   31.0840   28.6826 H           1 L04       0.0569
     94 H42        36.6217   32.0132   30.6559 H           1 L04       0.0635
     95 H43        37.7390   34.1712   30.5300 H           1 L04       0.0572
     96 H44        32.5991   38.7235   11.6396 H           1 L04       0.0604
     97 H45        32.7513   38.7329   14.0488 H           1 L04       0.0606
     98 H46        28.7023   38.1067   22.4083 H           1 L04       0.1883
     99 H47        25.4335   40.0734   24.5599 H           1 L04       0.2257
@<TRIPOS>BOND
     1     1    23   1
     2     1     2   1
     3     2    18   1
     4     2     3   1
     5     3    49  ar
     6     3    48  ar
     7    18     7   1
     8     7    16   1
     9     7     8   1
    10     8     9   1
    11     9    10   1
    12    10    15  ar
    13    10    11  ar
    14    11    12  ar
    15    12    13  ar
    16    13    14  ar
    17    13     5   1
    18     5    43  ar
    19     5     6  ar
    20     6    17  ar
    21    17    41  ar
    22    41    42  ar
    23    42    43  ar
    24    14    15  ar
    25    16    50   2
    26    16    45  am
    27    45    19   1
    28    19    27   1
    29    19    20   1
    30    20    21   1
    31    21     4   1
    32    21    22   1
    33    27    51   2
    34    27    46  am
    35    46    30   1
    36    30    35  ar
    37    30    31  ar
    38    31    32  ar
    39    32    33  ar
    40    33    34  ar
    41    34    35  ar
    42    23    24   1
    43    24    25   1
    44    25    44   1
    45    44    28   1
    46    44    26  am
    47    26    47   2
    48    26    29   1
    49    29    37  ar
    50    29    36  ar
    51    36    28   1
    52    36    38  ar
    53    38    39  ar
    54    39    40  ar
    55    40    37  ar
    56    41    52   1
    57     1    53   1
    58     1    54   1
    59     2    55   1
    60     4    56   1
    61     4    57   1
    62     4    58   1
    63     6    59   1
    64     7    60   1
    65     8    61   1
    66     8    62   1
    67     9    63   1
    68     9    64   1
    69    11    65   1
    70    12    66   1
    71    14    67   1
    72    15    68   1
    73    17    69   1
    74    18    70   1
    75    18    71   1
    76    19    72   1
    77    20    73   1
    78    20    74   1
    79    21    75   1
    80    22    76   1
    81    22    77   1
    82    22    78   1
    83    23    79   1
    84    23    80   1
    85    24    81   1
    86    24    82   1
    87    25    83   1
    88    25    84   1
    89    28    85   1
    90    28    86   1
    91    31    87   1
    92    32    88   1
    93    33    89   1
    94    34    90   1
    95    35    91   1
    96    37    92   1
    97    38    93   1
    98    39    94   1
    99    40    95   1
   100    42    96   1
   101    43    97   1
   102    45    98   1
   103    46    99   1
@<TRIPOS>SUBSTRUCTURE
     1  L04      1

