@<TRIPOS>MOLECULE
1hfs_ligand_067
    99   103
SMALL
GAST_HUCK
****
This file was generated by PARSER (from files_GN.cpp)

@<TRIPOS>ATOM
      1 C1         31.5664   37.7090   23.1725 C.3         1 L04      -0.0384
      2 C2         32.1346   38.7064   24.2528 C.3         1 L04       0.0141
      3 C3         31.9875   38.1335   25.6085 C.2         1 L04       0.0380
      4 C4         27.6894   45.3118   27.4839 C.3         1 L04      -0.0625
      5 C5         38.9590   39.9897   21.2287 C.ar        1 L04      -0.0257
      6 C6         39.8016   40.9785   20.6660 C.ar        1 L04      -0.0571
      7 C7         32.2828   41.1931   25.2723 C.3         1 L04       0.0523
      8 C8         33.6673   41.7974   24.8313 C.3         1 L04      -0.0232
      9 C9         34.9207   40.9440   25.2179 C.3         1 L04      -0.0166
     10 C10        35.9417   40.8190   24.1369 C.ar        1 L04      -0.0424
     11 C11        35.6259   40.1181   22.9487 C.ar        1 L04      -0.0596
     12 C12        36.6087   39.8814   21.9715 C.ar        1 L04      -0.0610
     13 C13        37.9363   40.3394   22.1534 C.ar        1 L04      -0.0267
     14 C14        38.2321   41.1001   23.3126 C.ar        1 L04      -0.0610
     15 C15        37.2511   41.3307   24.2966 C.ar        1 L04      -0.0596
     16 C16        31.3413   42.2564   25.6495 C.2         1 L04       0.1816
     17 C17        40.8181   40.6106   19.7661 C.ar        1 L04      -0.0282
     18 C18        31.6621   40.2003   24.2107 C.3         1 L04      -0.0186
     19 C19        30.2950   43.5628   27.5082 C.3         1 L04       0.1369
     20 C20        28.8445   42.9853   27.5492 C.3         1 L04      -0.0096
     21 C21        27.7070   43.8939   28.1195 C.3         1 L04      -0.0425
     22 C22        26.3265   43.1992   27.9478 C.3         1 L04      -0.0625
     23 C23        30.2367   38.0345   22.4298 C.3         1 L04      -0.0495
     24 C24        28.9371   38.0572   23.2861 C.3         1 L04      -0.0323
     25 C25        27.6716   38.6301   22.5731 C.3         1 L04       0.0356
     26 C26        28.5751   40.6772   21.5310 C.2         1 L04       0.2046
     27 C27        30.7619   44.0091   28.8282 C.2         1 L04       0.2292
     28 C28        27.6124   39.1605   20.1082 C.3         1 L04       0.0703
     29 C29        28.8281   41.1388   20.2751 C.ar        1 L04       0.0535
     30 C30        32.1435   43.5830   30.7604 C.ar        1 L04       0.0663
     31 C31        31.4162   43.7475   31.9585 C.ar        1 L04      -0.0413
     32 C32        32.0943   43.9960   33.1672 C.ar        1 L04      -0.0755
     33 C33        33.4967   44.1013   33.1821 C.ar        1 L04      -0.0772
     34 C34        34.2269   43.9337   31.9910 C.ar        1 L04      -0.0755
     35 C35        33.5529   43.6614   30.7862 C.ar        1 L04      -0.0413
     36 C36        28.2641   40.2413   19.3738 C.ar        1 L04      -0.0003
     37 C37        29.5914   42.2300   19.8104 C.ar        1 L04      -0.0484
     38 C38        28.4300   40.3960   17.9873 C.ar        1 L04      -0.0524
     39 C39        29.1964   41.4797   17.5140 C.ar        1 L04      -0.0641
     40 C40        29.7704   42.3938   18.4227 C.ar        1 L04      -0.0630
     41 C41        41.0045   39.2603   19.4220 C.ar        1 L04       0.1322
     42 C42        40.1742   38.2698   19.9803 C.ar        1 L04      -0.0282
     43 C43        39.1571   38.6317   20.8786 C.ar        1 L04      -0.0571
     44 N1         27.9354   39.5164   21.4642 N.am        1 L04      -0.2613
     45 N18        31.1696   42.5666   26.9353 N.am        1 L04      -0.2649
     46 N29        31.5403   43.2485   29.5923 N.am        1 L04      -0.2320
     47 O1         29.0378   41.1835   22.5444 O.2         1 L04      -0.3882
     48 O4         30.8002   38.1595   26.2616 O.co2       1 L04      -0.5687
     49 O5         32.9414   37.2800   26.0519 O.co2       1 L04      -0.5687
     50 O17        30.7389   42.8652   24.7717 O.2         1 L04      -0.3966
     51 O28        30.4976   45.1537   29.1836 O.2         1 L04      -0.3823
     52 F1         41.9402   38.9218   18.5765 F           1 L04      -0.1835
     53 H1         32.3193   37.6180   22.3815 H           1 L04       0.0286
     54 H2         31.4639   36.7008   23.5995 H           1 L04       0.0286
     55 H3         33.2119   38.7378   24.0625 H           1 L04       0.0467
     56 H4         26.8139   45.8718   27.8195 H           1 L04       0.0232
     57 H5         27.6635   45.2487   26.3940 H           1 L04       0.0232
     58 H6         28.5764   45.8761   27.7790 H           1 L04       0.0232
     59 H7         39.6759   41.9644   20.9041 H           1 L04       0.0606
     60 H8         32.4641   40.6097   26.1792 H           1 L04       0.0541
     61 H9         33.8099   42.7829   25.2921 H           1 L04       0.0315
     62 H10        33.6431   41.9802   23.7546 H           1 L04       0.0315
     63 H11        34.6311   39.9334   25.5157 H           1 L04       0.0430
     64 H12        35.3649   41.3852   26.1193 H           1 L04       0.0430
     65 H13        34.6770   39.7575   22.7920 H           1 L04       0.0559
     66 H14        36.3468   39.3594   21.1278 H           1 L04       0.0604
     67 H15        39.1798   41.4486   23.4738 H           1 L04       0.0604
     68 H16        37.5057   41.8566   25.1426 H           1 L04       0.0559
     69 H17        41.4150   41.3333   19.3595 H           1 L04       0.0604
     70 H18        30.5830   40.2139   24.3467 H           1 L04       0.0313
     71 H19        31.8380   40.5968   23.2112 H           1 L04       0.0313
     72 H20        30.3032   44.4297   26.8385 H           1 L04       0.0805
     73 H21        28.8703   42.0588   28.1350 H           1 L04       0.0315
     74 H22        28.5665   42.7047   26.5293 H           1 L04       0.0315
     75 H23        27.8684   44.0101   29.1947 H           1 L04       0.0298
     76 H24        26.3276   42.2225   28.4333 H           1 L04       0.0232
     77 H25        26.0923   43.0634   26.8906 H           1 L04       0.0232
     78 H26        25.5401   43.8012   28.4035 H           1 L04       0.0232
     79 H27        30.1012   37.2810   21.6423 H           1 L04       0.0267
     80 H28        30.3797   39.0022   21.9400 H           1 L04       0.0267
     81 H29        29.0884   38.6433   24.1838 H           1 L04       0.0285
     82 H30        28.7204   37.0412   23.6216 H           1 L04       0.0285
     83 H31        27.0611   39.1679   23.3051 H           1 L04       0.0523
     84 H32        27.0654   37.7864   22.2319 H           1 L04       0.0523
     85 H33        26.5327   39.1540   19.9366 H           1 L04       0.0699
     86 H34        28.0544   38.1990   19.8375 H           1 L04       0.0699
     87 H35        30.3990   43.6389   31.9632 H           1 L04       0.0502
     88 H36        31.5681   44.0981   34.0380 H           1 L04       0.0577
     89 H37        33.9893   44.2940   34.0567 H           1 L04       0.0487
     90 H38        35.2470   44.0055   31.9978 H           1 L04       0.0577
     91 H39        34.0944   43.5155   29.9286 H           1 L04       0.0502
     92 H40        30.0260   42.8809   20.4669 H           1 L04       0.0651
     93 H41        28.0303   39.7156   17.3365 H           1 L04       0.0569
     94 H42        29.3592   41.5847   16.5107 H           1 L04       0.0635
     95 H43        30.3372   43.1718   18.0709 H           1 L04       0.0572
     96 H44        40.3066   37.2883   19.7357 H           1 L04       0.0604
     97 H45        38.5749   37.8985   21.2894 H           1 L04       0.0606
     98 H46        31.6978   42.0458   27.5630 H           1 L04       0.1883
     99 H47        31.8177   42.4018   29.2260 H           1 L04       0.2257
@<TRIPOS>BOND
     1     1    23   1
     2     1     2   1
     3     2    18   1
     4     2     3   1
     5     3    49  ar
     6     3    48  ar
     7    18     7   1
     8     7    16   1
     9     7     8   1
    10     8     9   1
    11     9    10   1
    12    10    15  ar
    13    10    11  ar
    14    11    12  ar
    15    12    13  ar
    16    13    14  ar
    17    13     5   1
    18     5    43  ar
    19     5     6  ar
    20     6    17  ar
    21    17    41  ar
    22    41    42  ar
    23    42    43  ar
    24    14    15  ar
    25    16    50   2
    26    16    45  am
    27    45    19   1
    28    19    27   1
    29    19    20   1
    30    20    21   1
    31    21     4   1
    32    21    22   1
    33    27    51   2
    34    27    46  am
    35    46    30   1
    36    30    35  ar
    37    30    31  ar
    38    31    32  ar
    39    32    33  ar
    40    33    34  ar
    41    34    35  ar
    42    23    24   1
    43    24    25   1
    44    25    44   1
    45    44    28   1
    46    44    26  am
    47    26    47   2
    48    26    29   1
    49    29    37  ar
    50    29    36  ar
    51    36    28   1
    52    36    38  ar
    53    38    39  ar
    54    39    40  ar
    55    40    37  ar
    56    41    52   1
    57     1    53   1
    58     1    54   1
    59     2    55   1
    60     4    56   1
    61     4    57   1
    62     4    58   1
    63     6    59   1
    64     7    60   1
    65     8    61   1
    66     8    62   1
    67     9    63   1
    68     9    64   1
    69    11    65   1
    70    12    66   1
    71    14    67   1
    72    15    68   1
    73    17    69   1
    74    18    70   1
    75    18    71   1
    76    19    72   1
    77    20    73   1
    78    20    74   1
    79    21    75   1
    80    22    76   1
    81    22    77   1
    82    22    78   1
    83    23    79   1
    84    23    80   1
    85    24    81   1
    86    24    82   1
    87    25    83   1
    88    25    84   1
    89    28    85   1
    90    28    86   1
    91    31    87   1
    92    32    88   1
    93    33    89   1
    94    34    90   1
    95    35    91   1
    96    37    92   1
    97    38    93   1
    98    39    94   1
    99    40    95   1
   100    42    96   1
   101    43    97   1
   102    45    98   1
   103    46    99   1
@<TRIPOS>SUBSTRUCTURE
     1  L04      1

