@<TRIPOS>MOLECULE
1hfs_ligand_008
    99   103
SMALL
GAST_HUCK
****
This file was generated by PARSER (from files_GN.cpp)

@<TRIPOS>ATOM
      1 C1         31.2370   35.9479   24.2396 C.3         1 L04      -0.0384
      2 C2         32.7090   36.4550   24.0977 C.3         1 L04       0.0141
      3 C3         33.0380   36.7124   22.6753 C.2         1 L04       0.0380
      4 C4         37.0318   39.1404   20.2355 C.3         1 L04      -0.0625
      5 C5         38.8781   30.8263   30.1682 C.ar        1 L04      -0.0257
      6 C6         40.2486   31.0192   30.4669 C.ar        1 L04      -0.0571
      7 C7         35.1853   36.0079   24.9506 C.3         1 L04       0.0523
      8 C8         35.9571   35.3319   26.1367 C.3         1 L04      -0.0232
      9 C9         36.1169   33.7862   26.0319 C.3         1 L04      -0.0166
     10 C10        36.8389   33.0749   27.1290 C.ar        1 L04      -0.0424
     11 C11        37.7301   33.7072   28.0321 C.ar        1 L04      -0.0596
     12 C12        38.4155   32.9672   29.0147 C.ar        1 L04      -0.0610
     13 C13        38.2269   31.5737   29.1392 C.ar        1 L04      -0.0267
     14 C14        37.3408   30.9374   28.2391 C.ar        1 L04      -0.0610
     15 C15        36.6677   31.6735   27.2491 C.ar        1 L04      -0.0596
     16 C16        36.0040   35.9984   23.7379 C.2         1 L04       0.1816
     17 C17        40.8745   30.2911   31.5009 C.ar        1 L04      -0.0282
     18 C18        33.7216   35.4691   24.7797 C.3         1 L04      -0.0186
     19 C19        37.9131   36.9825   22.5133 C.3         1 L04       0.1369
     20 C20        38.2900   38.4985   22.3987 C.3         1 L04      -0.0096
     21 C21        38.4197   39.0232   20.9278 C.3         1 L04      -0.0425
     22 C22        39.1657   40.3853   20.8627 C.3         1 L04      -0.0625
     23 C23        30.1134   36.8975   23.7204 C.3         1 L04      -0.0495
     24 C24        29.5096   37.8348   24.8067 C.3         1 L04      -0.0323
     25 C25        28.2581   38.6458   24.3638 C.3         1 L04       0.0356
     26 C26        29.4604   40.2297   22.8924 C.2         1 L04       0.2046
     27 C27        39.0857   36.1082   22.5923 C.2         1 L04       0.2292
     28 C28        27.3915   39.5798   22.1781 C.3         1 L04       0.0703
     29 C29        29.2896   40.8355   21.6962 C.ar        1 L04       0.0535
     30 C30        40.5857   34.6082   21.3599 C.ar        1 L04       0.0663
     31 C31        40.9084   34.2367   20.0315 C.ar        1 L04      -0.0413
     32 C32        41.9831   33.3734   19.7582 C.ar        1 L04      -0.0755
     33 C33        42.7572   32.8555   20.8122 C.ar        1 L04      -0.0772
     34 C34        42.4384   33.1930   22.1402 C.ar        1 L04      -0.0755
     35 C35        41.3608   34.0547   22.4120 C.ar        1 L04      -0.0413
     36 C36        28.0241   40.4832   21.2190 C.ar        1 L04      -0.0003
     37 C37        30.1170   41.6979   20.9560 C.ar        1 L04      -0.0484
     38 C38        27.5484   40.9788   19.9951 C.ar        1 L04      -0.0524
     39 C39        28.3617   41.8638   19.2556 C.ar        1 L04      -0.0641
     40 C40        29.6512   42.2086   19.7296 C.ar        1 L04      -0.0630
     41 C41        40.1308   29.3662   32.2594 C.ar        1 L04       0.1322
     42 C42        38.7703   29.1689   31.9786 C.ar        1 L04      -0.0282
     43 C43        38.1504   29.8839   30.9354 C.ar        1 L04      -0.0571
     44 N1         28.4185   39.4624   23.1819 N.am        1 L04      -0.2613
     45 N18        37.0724   36.7779   23.6681 N.am        1 L04      -0.2649
     46 N29        39.5165   35.4516   21.5145 N.am        1 L04      -0.2320
     47 O1         30.4865   40.3484   23.5628 O.2         1 L04      -0.3882
     48 O4         33.5753   35.7468   21.8956 O.co2       1 L04      -0.5687
     49 O5         32.7545   37.9108   22.1093 O.co2       1 L04      -0.5687
     50 O17        35.7080   35.2636   22.7837 O.2         1 L04      -0.3966
     51 O28        39.6652   36.0380   23.6703 O.2         1 L04      -0.3823
     52 F1         40.7048   28.7008   33.2262 F           1 L04      -0.1835
     53 H1         31.1474   35.0001   23.7000 H           1 L04       0.0286
     54 H2         31.0215   35.7335   25.2931 H           1 L04       0.0286
     55 H3         32.7818   37.3922   24.6521 H           1 L04       0.0467
     56 H4         37.1605   39.3196   19.1687 H           1 L04       0.0232
     57 H5         36.4577   39.9640   20.6630 H           1 L04       0.0232
     58 H6         36.4519   38.2266   20.3526 H           1 L04       0.0232
     59 H7         40.8132   31.6827   29.9304 H           1 L04       0.0606
     60 H8         35.0755   37.0565   25.2526 H           1 L04       0.0541
     61 H9         35.4269   35.5616   27.0682 H           1 L04       0.0315
     62 H10        36.9494   35.7865   26.2084 H           1 L04       0.0315
     63 H11        36.6327   33.5520   25.0976 H           1 L04       0.0430
     64 H12        35.1078   33.3644   25.9749 H           1 L04       0.0430
     65 H13        37.8970   34.7129   27.9816 H           1 L04       0.0559
     66 H14        39.0416   33.4650   29.6561 H           1 L04       0.0604
     67 H15        37.1876   29.9252   28.2816 H           1 L04       0.0604
     68 H16        36.0444   31.1777   26.6090 H           1 L04       0.0559
     69 H17        41.8655   30.4403   31.7030 H           1 L04       0.0604
     70 H18        33.7273   34.5199   24.2331 H           1 L04       0.0313
     71 H19        33.3382   35.2461   25.7831 H           1 L04       0.0313
     72 H20        37.3364   36.7272   21.6181 H           1 L04       0.0805
     73 H21        39.2246   38.6658   22.9470 H           1 L04       0.0315
     74 H22        37.5287   39.0985   22.9090 H           1 L04       0.0315
     75 H23        39.0199   38.3081   20.3565 H           1 L04       0.0298
     76 H24        40.1692   40.2892   21.2847 H           1 L04       0.0232
     77 H25        38.6246   41.1513   21.4229 H           1 L04       0.0232
     78 H26        39.2664   40.7170   19.8268 H           1 L04       0.0232
     79 H27        29.3019   36.2792   23.3247 H           1 L04       0.0267
     80 H28        30.5076   37.4878   22.8895 H           1 L04       0.0267
     81 H29        30.2647   38.5431   25.1395 H           1 L04       0.0285
     82 H30        29.2358   37.2304   25.6767 H           1 L04       0.0285
     83 H31        27.9738   39.3096   25.1852 H           1 L04       0.0523
     84 H32        27.4290   37.9434   24.2256 H           1 L04       0.0523
     85 H33        26.4765   40.0306   22.5816 H           1 L04       0.0699
     86 H34        27.1649   38.6139   21.7166 H           1 L04       0.0699
     87 H35        40.3598   34.6036   19.2468 H           1 L04       0.0502
     88 H36        42.2025   33.1166   18.7913 H           1 L04       0.0577
     89 H37        43.5403   32.2307   20.6145 H           1 L04       0.0487
     90 H38        42.9912   32.8012   22.9076 H           1 L04       0.0577
     91 H39        41.1393   34.2548   23.3871 H           1 L04       0.0502
     92 H40        31.0483   41.9512   21.2983 H           1 L04       0.0651
     93 H41        26.6202   40.7118   19.6512 H           1 L04       0.0569
     94 H42        28.0241   42.2520   18.3766 H           1 L04       0.0635
     95 H43        30.2381   42.8417   19.1799 H           1 L04       0.0572
     96 H44        38.2190   28.5086   32.5332 H           1 L04       0.0604
     97 H45        37.1550   29.7243   30.7604 H           1 L04       0.0606
     98 H46        37.3061   37.2806   24.4760 H           1 L04       0.1883
     99 H47        39.0454   35.6578   20.6893 H           1 L04       0.2257
@<TRIPOS>BOND
     1     1    23   1
     2     1     2   1
     3     2    18   1
     4     2     3   1
     5     3    49  ar
     6     3    48  ar
     7    18     7   1
     8     7    16   1
     9     7     8   1
    10     8     9   1
    11     9    10   1
    12    10    15  ar
    13    10    11  ar
    14    11    12  ar
    15    12    13  ar
    16    13    14  ar
    17    13     5   1
    18     5    43  ar
    19     5     6  ar
    20     6    17  ar
    21    17    41  ar
    22    41    42  ar
    23    42    43  ar
    24    14    15  ar
    25    16    50   2
    26    16    45  am
    27    45    19   1
    28    19    27   1
    29    19    20   1
    30    20    21   1
    31    21     4   1
    32    21    22   1
    33    27    51   2
    34    27    46  am
    35    46    30   1
    36    30    35  ar
    37    30    31  ar
    38    31    32  ar
    39    32    33  ar
    40    33    34  ar
    41    34    35  ar
    42    23    24   1
    43    24    25   1
    44    25    44   1
    45    44    28   1
    46    44    26  am
    47    26    47   2
    48    26    29   1
    49    29    37  ar
    50    29    36  ar
    51    36    28   1
    52    36    38  ar
    53    38    39  ar
    54    39    40  ar
    55    40    37  ar
    56    41    52   1
    57     1    53   1
    58     1    54   1
    59     2    55   1
    60     4    56   1
    61     4    57   1
    62     4    58   1
    63     6    59   1
    64     7    60   1
    65     8    61   1
    66     8    62   1
    67     9    63   1
    68     9    64   1
    69    11    65   1
    70    12    66   1
    71    14    67   1
    72    15    68   1
    73    17    69   1
    74    18    70   1
    75    18    71   1
    76    19    72   1
    77    20    73   1
    78    20    74   1
    79    21    75   1
    80    22    76   1
    81    22    77   1
    82    22    78   1
    83    23    79   1
    84    23    80   1
    85    24    81   1
    86    24    82   1
    87    25    83   1
    88    25    84   1
    89    28    85   1
    90    28    86   1
    91    31    87   1
    92    32    88   1
    93    33    89   1
    94    34    90   1
    95    35    91   1
    96    37    92   1
    97    38    93   1
    98    39    94   1
    99    40    95   1
   100    42    96   1
   101    43    97   1
   102    45    98   1
   103    46    99   1
@<TRIPOS>SUBSTRUCTURE
     1  L04      1

