@<TRIPOS>MOLECULE
1hfs_ligand_077
    99   103
SMALL
GAST_HUCK
****
This file was generated by PARSER (from files_GN.cpp)

@<TRIPOS>ATOM
      1 C1         33.8093   39.6534   21.4421 C.3         1 L04      -0.0384
      2 C2         33.4547   38.4518   22.3983 C.3         1 L04       0.0141
      3 C3         34.5812   37.4767   22.4191 C.2         1 L04       0.0380
      4 C4         25.1512   37.8732   20.6620 C.3         1 L04      -0.0625
      5 C5         26.1249   39.1167   28.1585 C.ar        1 L04      -0.0257
      6 C6         25.0773   38.1699   28.0538 C.ar        1 L04      -0.0571
      7 C7         30.7059   38.4194   22.2624 C.3         1 L04       0.0523
      8 C8         30.7144   39.5975   23.2964 C.3         1 L04      -0.0232
      9 C9         29.3727   40.3577   23.5504 C.3         1 L04      -0.0166
     10 C10        28.6208   39.9992   24.7843 C.ar        1 L04      -0.0424
     11 C11        28.0987   41.0298   25.5950 C.ar        1 L04      -0.0596
     12 C12        27.2866   40.7289   26.7005 C.ar        1 L04      -0.0610
     13 C13        26.9777   39.3932   27.0433 C.ar        1 L04      -0.0267
     14 C14        27.5107   38.3631   26.2339 C.ar        1 L04      -0.0610
     15 C15        28.3093   38.6592   25.1118 C.ar        1 L04      -0.0596
     16 C16        30.1033   38.8213   20.9831 C.2         1 L04       0.1816
     17 C17        24.1928   37.9512   29.1255 C.ar        1 L04      -0.0282
     18 C18        32.1041   37.6962   22.1204 C.3         1 L04      -0.0186
     19 C19        27.9472   38.9917   19.6538 C.3         1 L04       0.1369
     20 C20        26.7446   39.8920   20.0957 C.3         1 L04      -0.0096
     21 C21        25.6373   39.3006   21.0359 C.3         1 L04      -0.0425
     22 C22        25.9908   39.3627   22.5442 C.3         1 L04      -0.0625
     23 C23        33.8342   41.0701   22.1056 C.3         1 L04      -0.0495
     24 C24        35.0271   42.0216   21.7868 C.3         1 L04      -0.0323
     25 C25        36.2625   41.9967   22.7550 C.3         1 L04       0.0356
     26 C26        38.6099   41.3303   23.0359 C.2         1 L04       0.2046
     27 C27        28.6834   39.4709   18.4794 C.2         1 L04       0.2292
     28 C28        37.4582   40.1127   21.4935 C.3         1 L04       0.0703
     29 C29        39.5268   40.4924   22.4829 C.ar        1 L04       0.0535
     30 C30        30.1834   38.6844   16.6863 C.ar        1 L04       0.0663
     31 C31        30.3565   39.8291   15.8682 C.ar        1 L04      -0.0413
     32 C32        31.3161   39.8359   14.8397 C.ar        1 L04      -0.0755
     33 C33        32.1158   38.7015   14.6124 C.ar        1 L04      -0.0772
     34 C34        31.9425   37.5519   15.4014 C.ar        1 L04      -0.0755
     35 C35        30.9795   37.5456   16.4258 C.ar        1 L04      -0.0413
     36 C36        38.8719   39.7400   21.5142 C.ar        1 L04      -0.0003
     37 C37        40.9045   40.3115   22.7132 C.ar        1 L04      -0.0484
     38 C38        39.5611   38.7892   20.7383 C.ar        1 L04      -0.0524
     39 C39        40.9432   38.6143   20.9491 C.ar        1 L04      -0.0641
     40 C40        41.6105   39.3713   21.9355 C.ar        1 L04      -0.0630
     41 C41        24.3418   38.6755   30.3222 C.ar        1 L04       0.1322
     42 C42        25.3875   39.6063   30.4517 C.ar        1 L04      -0.0282
     43 C43        26.2732   39.8189   29.3803 C.ar        1 L04      -0.0571
     44 N1         37.4184   41.1714   22.4578 N.am        1 L04      -0.2613
     45 N18        28.7939   38.6333   20.7683 N.am        1 L04      -0.2649
     46 N29        29.3075   38.5670   17.7319 N.am        1 L04      -0.2320
     47 O1         38.8880   42.1578   23.8954 O.2         1 L04      -0.3882
     48 O4         34.6592   36.4744   21.5119 O.co2       1 L04      -0.5687
     49 O5         35.6420   37.6584   23.2444 O.co2       1 L04      -0.5687
     50 O17        30.7848   39.4557   20.1853 O.2         1 L04      -0.3966
     51 O28        28.8251   40.6771   18.3106 O.2         1 L04      -0.3823
     52 F1         23.5074   38.4886   31.3078 F           1 L04      -0.1835
     53 H1         34.7690   39.4893   20.9515 H           1 L04       0.0286
     54 H2         33.1015   39.6635   20.6117 H           1 L04       0.0286
     55 H3         33.3965   38.8164   23.4270 H           1 L04       0.0467
     56 H4         24.2759   37.6092   21.2600 H           1 L04       0.0232
     57 H5         25.9256   37.1277   20.8551 H           1 L04       0.0232
     58 H6         24.8697   37.8273   19.6070 H           1 L04       0.0232
     59 H7         24.9221   37.6524   27.1839 H           1 L04       0.0606
     60 H8         30.0404   37.6655   22.6980 H           1 L04       0.0541
     61 H9         31.4215   40.3406   22.9286 H           1 L04       0.0315
     62 H10        31.1204   39.2319   24.2442 H           1 L04       0.0315
     63 H11        28.7036   40.2229   22.7045 H           1 L04       0.0430
     64 H12        29.6080   41.4289   23.5614 H           1 L04       0.0430
     65 H13        28.2829   42.0107   25.3738 H           1 L04       0.0559
     66 H14        26.8995   41.5110   27.2333 H           1 L04       0.0604
     67 H15        27.3209   37.3813   26.4473 H           1 L04       0.0604
     68 H16        28.6553   37.8891   24.5383 H           1 L04       0.0559
     69 H17        23.4347   37.2762   29.0281 H           1 L04       0.0604
     70 H18        32.0760   36.8647   22.8307 H           1 L04       0.0313
     71 H19        32.1685   37.2388   21.1328 H           1 L04       0.0313
     72 H20        27.4962   38.0508   19.3328 H           1 L04       0.0805
     73 H21        26.2316   40.2012   19.1848 H           1 L04       0.0315
     74 H22        27.1461   40.8032   20.5442 H           1 L04       0.0315
     75 H23        24.7664   39.9503   20.9142 H           1 L04       0.0298
     76 H24        26.2931   40.3727   22.8182 H           1 L04       0.0232
     77 H25        26.7975   38.6697   22.7827 H           1 L04       0.0232
     78 H26        25.1196   39.1035   23.1520 H           1 L04       0.0232
     79 H27        33.7690   40.9928   23.1903 H           1 L04       0.0267
     80 H28        32.9228   41.5809   21.7855 H           1 L04       0.0267
     81 H29        34.6190   43.0359   21.8532 H           1 L04       0.0285
     82 H30        35.3472   41.8935   20.7498 H           1 L04       0.0285
     83 H31        35.9291   41.7641   23.7694 H           1 L04       0.0523
     84 H32        36.6327   43.0255   22.7835 H           1 L04       0.0523
     85 H33        37.1633   40.4525   20.4994 H           1 L04       0.0699
     86 H34        36.8564   39.2668   21.8256 H           1 L04       0.0699
     87 H35        29.7806   40.6600   15.9990 H           1 L04       0.0502
     88 H36        31.4365   40.6683   14.2606 H           1 L04       0.0577
     89 H37        32.8213   38.7139   13.8739 H           1 L04       0.0487
     90 H38        32.5217   36.7262   15.2377 H           1 L04       0.0577
     91 H39        30.8726   36.7003   16.9947 H           1 L04       0.0502
     92 H40        41.3877   40.8524   23.4312 H           1 L04       0.0651
     93 H41        39.0677   38.2405   20.0322 H           1 L04       0.0569
     94 H42        41.4601   37.9367   20.3903 H           1 L04       0.0635
     95 H43        42.6124   39.2378   22.0861 H           1 L04       0.0572
     96 H44        25.5070   40.1247   31.3223 H           1 L04       0.0604
     97 H45        27.0286   40.4972   29.5038 H           1 L04       0.0606
     98 H46        28.3235   38.2179   21.5115 H           1 L04       0.1883
     99 H47        29.1357   37.6478   17.9994 H           1 L04       0.2257
@<TRIPOS>BOND
     1     1    23   1
     2     1     2   1
     3     2    18   1
     4     2     3   1
     5     3    49  ar
     6     3    48  ar
     7    18     7   1
     8     7    16   1
     9     7     8   1
    10     8     9   1
    11     9    10   1
    12    10    15  ar
    13    10    11  ar
    14    11    12  ar
    15    12    13  ar
    16    13    14  ar
    17    13     5   1
    18     5    43  ar
    19     5     6  ar
    20     6    17  ar
    21    17    41  ar
    22    41    42  ar
    23    42    43  ar
    24    14    15  ar
    25    16    50   2
    26    16    45  am
    27    45    19   1
    28    19    27   1
    29    19    20   1
    30    20    21   1
    31    21     4   1
    32    21    22   1
    33    27    51   2
    34    27    46  am
    35    46    30   1
    36    30    35  ar
    37    30    31  ar
    38    31    32  ar
    39    32    33  ar
    40    33    34  ar
    41    34    35  ar
    42    23    24   1
    43    24    25   1
    44    25    44   1
    45    44    28   1
    46    44    26  am
    47    26    47   2
    48    26    29   1
    49    29    37  ar
    50    29    36  ar
    51    36    28   1
    52    36    38  ar
    53    38    39  ar
    54    39    40  ar
    55    40    37  ar
    56    41    52   1
    57     1    53   1
    58     1    54   1
    59     2    55   1
    60     4    56   1
    61     4    57   1
    62     4    58   1
    63     6    59   1
    64     7    60   1
    65     8    61   1
    66     8    62   1
    67     9    63   1
    68     9    64   1
    69    11    65   1
    70    12    66   1
    71    14    67   1
    72    15    68   1
    73    17    69   1
    74    18    70   1
    75    18    71   1
    76    19    72   1
    77    20    73   1
    78    20    74   1
    79    21    75   1
    80    22    76   1
    81    22    77   1
    82    22    78   1
    83    23    79   1
    84    23    80   1
    85    24    81   1
    86    24    82   1
    87    25    83   1
    88    25    84   1
    89    28    85   1
    90    28    86   1
    91    31    87   1
    92    32    88   1
    93    33    89   1
    94    34    90   1
    95    35    91   1
    96    37    92   1
    97    38    93   1
    98    39    94   1
    99    40    95   1
   100    42    96   1
   101    43    97   1
   102    45    98   1
   103    46    99   1
@<TRIPOS>SUBSTRUCTURE
     1  L04      1

