@<TRIPOS>MOLECULE
1hfs_ligand_061
    99   103
SMALL
GAST_HUCK
****
This file was generated by PARSER (from files_GN.cpp)

@<TRIPOS>ATOM
      1 C1         34.3170   36.6881   23.6138 C.3         1 L04      -0.0384
      2 C2         33.0154   37.4403   24.0395 C.3         1 L04       0.0141
      3 C3         32.6696   37.3124   25.4809 C.2         1 L04       0.0380
      4 C4         23.9391   38.7999   23.0508 C.3         1 L04      -0.0625
      5 C5         33.6534   42.5253   16.9485 C.ar        1 L04      -0.0257
      6 C6         33.5881   43.8786   16.5363 C.ar        1 L04      -0.0571
      7 C7         30.7368   38.2119   22.9571 C.3         1 L04       0.0523
      8 C8         30.9410   38.8938   21.5505 C.3         1 L04      -0.0232
      9 C9         30.8957   40.4576   21.5435 C.3         1 L04      -0.0166
     10 C10        31.5868   41.0453   20.3570 C.ar        1 L04      -0.0424
     11 C11        30.8703   41.5005   19.2230 C.ar        1 L04      -0.0596
     12 C12        31.5452   42.0241   18.1086 C.ar        1 L04      -0.0610
     13 C13        32.9579   42.0825   18.0886 C.ar        1 L04      -0.0267
     14 C14        33.6769   41.6505   19.2268 C.ar        1 L04      -0.0610
     15 C15        32.9991   41.1578   20.3477 C.ar        1 L04      -0.0596
     16 C16        29.3332   37.8421   23.1664 C.2         1 L04       0.1816
     17 C17        34.3253   44.3229   15.4266 C.ar        1 L04      -0.0282
     18 C18        31.7705   37.0332   23.1622 C.3         1 L04      -0.0186
     19 C19        26.9780   38.6537   23.2698 C.3         1 L04       0.1369
     20 C20        26.2100   37.7845   22.2064 C.3         1 L04      -0.0096
     21 C21        24.7331   38.1839   21.8645 C.3         1 L04      -0.0425
     22 C22        24.6461   39.0970   20.6068 C.3         1 L04      -0.0625
     23 C23        35.6400   37.3274   24.1444 C.3         1 L04      -0.0495
     24 C24        36.7309   37.4697   23.0491 C.3         1 L04      -0.0323
     25 C25        38.0267   38.1554   23.5593 C.3         1 L04       0.0356
     26 C26        39.4788   37.5581   21.6591 C.2         1 L04       0.2046
     27 C27        26.7541   38.2257   24.6445 C.2         1 L04       0.2292
     28 C28        39.3620   39.7848   22.1753 C.3         1 L04       0.0703
     29 C29        40.2669   38.1857   20.7467 C.ar        1 L04       0.0535
     30 C30        25.7933   38.7187   26.7712 C.ar        1 L04       0.0663
     31 C31        24.7015   37.8742   27.0690 C.ar        1 L04      -0.0413
     32 C32        24.3816   37.5640   28.3995 C.ar        1 L04      -0.0755
     33 C33        25.1778   38.0731   29.4482 C.ar        1 L04      -0.0772
     34 C34        26.2690   38.9111   29.1605 C.ar        1 L04      -0.0755
     35 C35        26.5754   39.2420   27.8296 C.ar        1 L04      -0.0413
     36 C36        40.2328   39.5504   21.0248 C.ar        1 L04      -0.0003
     37 C37        41.0224   37.6918   19.6670 C.ar        1 L04      -0.0484
     38 C38        40.9550   40.4683   20.2437 C.ar        1 L04      -0.0524
     39 C39        41.7208   39.9851   19.1657 C.ar        1 L04      -0.0641
     40 C40        41.7531   38.6018   18.8766 C.ar        1 L04      -0.0630
     41 C41        35.1316   43.4253   14.6999 C.ar        1 L04       0.1322
     42 C42        35.1995   42.0747   15.0992 C.ar        1 L04      -0.0282
     43 C43        34.4737   41.6294   16.2131 C.ar        1 L04      -0.0571
     44 N1         38.9395   38.4475   22.4850 N.am        1 L04      -0.2613
     45 N18        28.3885   38.7615   23.0127 N.am        1 L04      -0.2649
     46 N29        26.1172   39.0276   25.4926 N.am        1 L04      -0.2320
     47 O1         39.3046   36.3431   21.6853 O.2         1 L04      -0.3882
     48 O4         31.5093   37.8339   25.9371 O.co2       1 L04      -0.5687
     49 O5         33.3403   36.4903   26.3168 O.co2       1 L04      -0.5687
     50 O17        29.0289   36.7145   23.5422 O.2         1 L04      -0.3966
     51 O28        27.2444   37.1595   25.0227 O.2         1 L04      -0.3823
     52 F1         35.8143   43.8377   13.6721 F           1 L04      -0.1835
     53 H1         34.2505   35.6476   23.9478 H           1 L04       0.0286
     54 H2         34.3371   36.6689   22.5204 H           1 L04       0.0286
     55 H3         33.2314   38.4984   23.8737 H           1 L04       0.0467
     56 H4         22.8962   38.9535   22.7750 H           1 L04       0.0232
     57 H5         24.3516   39.7708   23.3419 H           1 L04       0.0232
     58 H6         23.9731   38.1281   23.9135 H           1 L04       0.0232
     59 H7         33.0196   44.5495   17.0634 H           1 L04       0.0606
     60 H8         30.9573   38.9647   23.7295 H           1 L04       0.0541
     61 H9         30.1909   38.5222   20.8386 H           1 L04       0.0315
     62 H10        31.9133   38.5940   21.1522 H           1 L04       0.0315
     63 H11        31.3871   40.8518   22.4431 H           1 L04       0.0430
     64 H12        29.8513   40.7796   21.5812 H           1 L04       0.0430
     65 H13        29.8463   41.4444   19.2070 H           1 L04       0.0559
     66 H14        31.0044   42.3350   17.3001 H           1 L04       0.0604
     67 H15        34.6955   41.6932   19.2431 H           1 L04       0.0604
     68 H16        33.5437   40.8593   21.1641 H           1 L04       0.0559
     69 H17        34.2806   45.3081   15.1525 H           1 L04       0.0604
     70 H18        31.2853   36.1703   23.6257 H           1 L04       0.0313
     71 H19        32.0878   36.6672   22.1795 H           1 L04       0.0313
     72 H20        26.6221   39.6796   23.1412 H           1 L04       0.0805
     73 H21        26.1864   36.7411   22.5293 H           1 L04       0.0315
     74 H22        26.7720   37.7846   21.2697 H           1 L04       0.0315
     75 H23        24.2076   37.2623   21.5884 H           1 L04       0.0298
     76 H24        25.0505   38.5736   19.7312 H           1 L04       0.0232
     77 H25        25.2136   40.0201   20.7431 H           1 L04       0.0232
     78 H26        23.6070   39.3564   20.3825 H           1 L04       0.0232
     79 H27        36.0290   36.7117   24.9566 H           1 L04       0.0267
     80 H28        35.4458   38.3217   24.5538 H           1 L04       0.0267
     81 H29        36.3259   38.0625   22.2204 H           1 L04       0.0285
     82 H30        36.9711   36.4751   22.6676 H           1 L04       0.0285
     83 H31        38.5229   37.5169   24.2956 H           1 L04       0.0523
     84 H32        37.7477   39.0838   24.0697 H           1 L04       0.0523
     85 H33        39.9211   40.2314   23.0041 H           1 L04       0.0699
     86 H34        38.5148   40.4166   21.8967 H           1 L04       0.0699
     87 H35        24.1070   37.5158   26.3156 H           1 L04       0.0502
     88 H36        23.5774   36.9740   28.6083 H           1 L04       0.0577
     89 H37        24.9524   37.8337   30.4188 H           1 L04       0.0487
     90 H38        26.8421   39.2878   29.9225 H           1 L04       0.0577
     91 H39        27.3635   39.8610   27.6272 H           1 L04       0.0502
     92 H40        41.0353   36.6915   19.4543 H           1 L04       0.0651
     93 H41        40.9207   41.4702   20.4587 H           1 L04       0.0569
     94 H42        42.2471   40.6402   18.5846 H           1 L04       0.0635
     95 H43        42.3035   38.2611   18.0887 H           1 L04       0.0572
     96 H44        35.7849   41.4151   14.5750 H           1 L04       0.0604
     97 H45        34.5428   40.6446   16.4915 H           1 L04       0.0606
     98 H46        28.6905   39.6361   22.7306 H           1 L04       0.1883
     99 H47        25.8842   39.9210   25.1830 H           1 L04       0.2257
@<TRIPOS>BOND
     1     1    23   1
     2     1     2   1
     3     2    18   1
     4     2     3   1
     5     3    49  ar
     6     3    48  ar
     7    18     7   1
     8     7    16   1
     9     7     8   1
    10     8     9   1
    11     9    10   1
    12    10    15  ar
    13    10    11  ar
    14    11    12  ar
    15    12    13  ar
    16    13    14  ar
    17    13     5   1
    18     5    43  ar
    19     5     6  ar
    20     6    17  ar
    21    17    41  ar
    22    41    42  ar
    23    42    43  ar
    24    14    15  ar
    25    16    50   2
    26    16    45  am
    27    45    19   1
    28    19    27   1
    29    19    20   1
    30    20    21   1
    31    21     4   1
    32    21    22   1
    33    27    51   2
    34    27    46  am
    35    46    30   1
    36    30    35  ar
    37    30    31  ar
    38    31    32  ar
    39    32    33  ar
    40    33    34  ar
    41    34    35  ar
    42    23    24   1
    43    24    25   1
    44    25    44   1
    45    44    28   1
    46    44    26  am
    47    26    47   2
    48    26    29   1
    49    29    37  ar
    50    29    36  ar
    51    36    28   1
    52    36    38  ar
    53    38    39  ar
    54    39    40  ar
    55    40    37  ar
    56    41    52   1
    57     1    53   1
    58     1    54   1
    59     2    55   1
    60     4    56   1
    61     4    57   1
    62     4    58   1
    63     6    59   1
    64     7    60   1
    65     8    61   1
    66     8    62   1
    67     9    63   1
    68     9    64   1
    69    11    65   1
    70    12    66   1
    71    14    67   1
    72    15    68   1
    73    17    69   1
    74    18    70   1
    75    18    71   1
    76    19    72   1
    77    20    73   1
    78    20    74   1
    79    21    75   1
    80    22    76   1
    81    22    77   1
    82    22    78   1
    83    23    79   1
    84    23    80   1
    85    24    81   1
    86    24    82   1
    87    25    83   1
    88    25    84   1
    89    28    85   1
    90    28    86   1
    91    31    87   1
    92    32    88   1
    93    33    89   1
    94    34    90   1
    95    35    91   1
    96    37    92   1
    97    38    93   1
    98    39    94   1
    99    40    95   1
   100    42    96   1
   101    43    97   1
   102    45    98   1
   103    46    99   1
@<TRIPOS>SUBSTRUCTURE
     1  L04      1

