@<TRIPOS>MOLECULE
1hfs_ligand_073
    99   103
SMALL
GAST_HUCK
****
This file was generated by PARSER (from files_GN.cpp)

@<TRIPOS>ATOM
      1 C1         33.0389   40.9870   23.4616 C.3         1 L04      -0.0384
      2 C2         31.6363   41.6792   23.4068 C.3         1 L04       0.0141
      3 C3         31.0964   41.9919   24.7565 C.2         1 L04       0.0380
      4 C4         25.0967   37.6480   20.8812 C.3         1 L04      -0.0625
      5 C5         36.3807   36.7586   23.3381 C.ar        1 L04      -0.0257
      6 C6         37.1330   37.8383   23.8702 C.ar        1 L04      -0.0571
      7 C7         30.6185   39.4210   22.3030 C.3         1 L04       0.0523
      8 C8         30.1989   38.5915   23.5624 C.3         1 L04      -0.0232
      9 C9         30.6348   37.0947   23.5404 C.3         1 L04      -0.0166
     10 C10        32.1135   36.9248   23.4811 C.ar        1 L04      -0.0424
     11 C11        32.8714   36.7893   24.6693 C.ar        1 L04      -0.0596
     12 C12        34.2735   36.7166   24.6235 C.ar        1 L04      -0.0610
     13 C13        34.9627   36.7784   23.3909 C.ar        1 L04      -0.0267
     14 C14        34.2069   36.8913   22.2026 C.ar        1 L04      -0.0610
     15 C15        32.8054   36.9594   22.2487 C.ar        1 L04      -0.0596
     16 C16        29.8727   38.9784   21.1139 C.2         1 L04       0.1816
     17 C17        38.5331   37.8312   23.8172 C.ar        1 L04      -0.0282
     18 C18        30.5543   40.9775   22.5029 C.3         1 L04      -0.0186
     19 C19        27.8470   39.1072   19.6764 C.3         1 L04       0.1369
     20 C20        26.3883   39.6556   19.8278 C.3         1 L04      -0.0096
     21 C21        25.5051   39.1418   21.0172 C.3         1 L04      -0.0425
     22 C22        26.1072   39.4142   22.4218 C.3         1 L04      -0.0625
     23 C23        33.9005   41.1420   22.1708 C.3         1 L04      -0.0495
     24 C24        35.2504   40.3756   22.2431 C.3         1 L04      -0.0323
     25 C25        36.2740   40.8904   21.1948 C.3         1 L04       0.0356
     26 C26        38.5438   40.6431   22.1026 C.2         1 L04       0.2046
     27 C27        28.4599   39.5077   18.4047 C.2         1 L04       0.2292
     28 C28        37.9674   39.1519   20.4626 C.3         1 L04       0.0703
     29 C29        39.6628   39.9012   21.8745 C.ar        1 L04       0.0535
     30 C30        30.0041   38.7321   16.6555 C.ar        1 L04       0.0663
     31 C31        30.9247   37.6740   16.4712 C.ar        1 L04      -0.0413
     32 C32        31.9140   37.7342   15.4720 C.ar        1 L04      -0.0755
     33 C33        31.9848   38.8548   14.6243 C.ar        1 L04      -0.0772
     34 C34        31.0565   39.9003   14.7705 C.ar        1 L04      -0.0755
     35 C35        30.0709   39.8394   15.7723 C.ar        1 L04      -0.0413
     36 C36        39.3580   38.9790   20.8760 C.ar        1 L04      -0.0003
     37 C37        40.9479   39.9534   22.4435 C.ar        1 L04      -0.0484
     38 C38        40.3366   38.0791   20.4064 C.ar        1 L04      -0.0524
     39 C39        41.6277   38.1218   20.9687 C.ar        1 L04      -0.0641
     40 C40        41.9335   39.0568   21.9846 C.ar        1 L04      -0.0630
     41 C41        39.2141   36.7478   23.2273 C.ar        1 L04       0.1322
     42 C42        38.4836   35.6751   22.6839 C.ar        1 L04      -0.0282
     43 C43        37.0772   35.6820   22.7436 C.ar        1 L04      -0.0571
     44 N1         37.5646   40.2538   21.2941 N.am        1 L04      -0.2613
     45 N18        28.6903   39.4989   20.7842 N.am        1 L04      -0.2649
     46 N29        29.1191   38.5970   17.6914 N.am        1 L04      -0.2320
     47 O1         38.4909   41.5605   22.9100 O.2         1 L04      -0.3882
     48 O4         31.4336   41.2738   25.8564 O.co2       1 L04      -0.5687
     49 O5         30.3591   43.1126   24.9431 O.co2       1 L04      -0.5687
     50 O17        30.3688   38.1025   20.4182 O.2         1 L04      -0.3966
     51 O28        28.5201   40.7054   18.1429 O.2         1 L04      -0.3823
     52 F1         40.5162   36.7353   23.1906 F           1 L04      -0.1835
     53 H1         33.6187   41.4082   24.2902 H           1 L04       0.0286
     54 H2         32.8981   39.9262   23.6783 H           1 L04       0.0286
     55 H3         31.8219   42.6614   22.9585 H           1 L04       0.0467
     56 H4         24.3509   37.3893   21.6373 H           1 L04       0.0232
     57 H5         25.9583   36.9938   21.0156 H           1 L04       0.0232
     58 H6         24.6634   37.4582   19.8968 H           1 L04       0.0232
     59 H7         36.6552   38.6448   24.2797 H           1 L04       0.0606
     60 H8         31.6760   39.2082   22.1141 H           1 L04       0.0541
     61 H9         29.1119   38.6410   23.6857 H           1 L04       0.0315
     62 H10        30.6294   39.0359   24.4599 H           1 L04       0.0315
     63 H11        30.1578   36.5941   22.6961 H           1 L04       0.0430
     64 H12        30.2535   36.6007   24.4393 H           1 L04       0.0430
     65 H13        32.3982   36.7480   25.5768 H           1 L04       0.0559
     66 H14        34.7913   36.6118   25.5024 H           1 L04       0.0604
     67 H15        34.6745   36.9603   21.2948 H           1 L04       0.0604
     68 H16        32.2918   37.0663   21.3714 H           1 L04       0.0559
     69 H17        39.0625   38.6138   24.2077 H           1 L04       0.0604
     70 H18        30.6410   41.4355   21.5097 H           1 L04       0.0313
     71 H19        29.5566   41.2432   22.8669 H           1 L04       0.0313
     72 H20        27.7697   38.0194   19.7077 H           1 L04       0.0805
     73 H21        25.8467   39.4055   18.9130 H           1 L04       0.0315
     74 H22        26.4258   40.7482   19.8760 H           1 L04       0.0315
     75 H23        24.5720   39.7148   20.9688 H           1 L04       0.0298
     76 H24        26.4690   40.4410   22.4921 H           1 L04       0.0232
     77 H25        26.9353   38.7330   22.6243 H           1 L04       0.0232
     78 H26        25.3480   39.2669   23.1937 H           1 L04       0.0232
     79 H27        34.0993   42.2093   22.0170 H           1 L04       0.0267
     80 H28        33.3416   40.7724   21.3058 H           1 L04       0.0267
     81 H29        35.0744   39.3122   22.0629 H           1 L04       0.0285
     82 H30        35.6727   40.4829   23.2455 H           1 L04       0.0285
     83 H31        36.4051   41.9692   21.3164 H           1 L04       0.0523
     84 H32        35.8514   40.7302   20.1981 H           1 L04       0.0523
     85 H33        37.9142   39.3972   19.3996 H           1 L04       0.0699
     86 H34        37.3792   38.2560   20.6772 H           1 L04       0.0699
     87 H35        30.8964   36.8518   17.0818 H           1 L04       0.0502
     88 H36        32.5839   36.9682   15.3629 H           1 L04       0.0577
     89 H37        32.7027   38.9028   13.8983 H           1 L04       0.0487
     90 H38        31.0978   40.7077   14.1423 H           1 L04       0.0577
     91 H39        29.3962   40.6013   15.8406 H           1 L04       0.0502
     92 H40        41.1685   40.6325   23.1767 H           1 L04       0.0651
     93 H41        40.1168   37.4129   19.6656 H           1 L04       0.0569
     94 H42        42.3472   37.4739   20.6421 H           1 L04       0.0635
     95 H43        42.8739   39.0840   22.3836 H           1 L04       0.0572
     96 H44        38.9747   34.8889   22.2560 H           1 L04       0.0604
     97 H45        36.5623   34.8852   22.3578 H           1 L04       0.0606
     98 H46        28.3586   40.2036   21.3581 H           1 L04       0.1883
     99 H47        29.0640   37.6941   18.0425 H           1 L04       0.2257
@<TRIPOS>BOND
     1     1    23   1
     2     1     2   1
     3     2    18   1
     4     2     3   1
     5     3    49  ar
     6     3    48  ar
     7    18     7   1
     8     7    16   1
     9     7     8   1
    10     8     9   1
    11     9    10   1
    12    10    15  ar
    13    10    11  ar
    14    11    12  ar
    15    12    13  ar
    16    13    14  ar
    17    13     5   1
    18     5    43  ar
    19     5     6  ar
    20     6    17  ar
    21    17    41  ar
    22    41    42  ar
    23    42    43  ar
    24    14    15  ar
    25    16    50   2
    26    16    45  am
    27    45    19   1
    28    19    27   1
    29    19    20   1
    30    20    21   1
    31    21     4   1
    32    21    22   1
    33    27    51   2
    34    27    46  am
    35    46    30   1
    36    30    35  ar
    37    30    31  ar
    38    31    32  ar
    39    32    33  ar
    40    33    34  ar
    41    34    35  ar
    42    23    24   1
    43    24    25   1
    44    25    44   1
    45    44    28   1
    46    44    26  am
    47    26    47   2
    48    26    29   1
    49    29    37  ar
    50    29    36  ar
    51    36    28   1
    52    36    38  ar
    53    38    39  ar
    54    39    40  ar
    55    40    37  ar
    56    41    52   1
    57     1    53   1
    58     1    54   1
    59     2    55   1
    60     4    56   1
    61     4    57   1
    62     4    58   1
    63     6    59   1
    64     7    60   1
    65     8    61   1
    66     8    62   1
    67     9    63   1
    68     9    64   1
    69    11    65   1
    70    12    66   1
    71    14    67   1
    72    15    68   1
    73    17    69   1
    74    18    70   1
    75    18    71   1
    76    19    72   1
    77    20    73   1
    78    20    74   1
    79    21    75   1
    80    22    76   1
    81    22    77   1
    82    22    78   1
    83    23    79   1
    84    23    80   1
    85    24    81   1
    86    24    82   1
    87    25    83   1
    88    25    84   1
    89    28    85   1
    90    28    86   1
    91    31    87   1
    92    32    88   1
    93    33    89   1
    94    34    90   1
    95    35    91   1
    96    37    92   1
    97    38    93   1
    98    39    94   1
    99    40    95   1
   100    42    96   1
   101    43    97   1
   102    45    98   1
   103    46    99   1
@<TRIPOS>SUBSTRUCTURE
     1  L04      1

