@<TRIPOS>MOLECULE
1hfs_ligand_040
    99   103
SMALL
GAST_HUCK
****
This file was generated by PARSER (from files_GN.cpp)

@<TRIPOS>ATOM
      1 C1         34.4835   38.6364   24.1261 C.3         1 L04      -0.0384
      2 C2         32.9497   38.9271   23.9935 C.3         1 L04       0.0141
      3 C3         32.2543   39.0489   25.2981 C.2         1 L04       0.0380
      4 C4         25.0094   39.0507   20.5377 C.3         1 L04      -0.0625
      5 C5         36.4923   32.9940   27.8805 C.ar        1 L04      -0.0257
      6 C6         36.1943   31.7655   28.5224 C.ar        1 L04      -0.0571
      7 C7         31.2562   36.8686   23.2204 C.3         1 L04       0.0523
      8 C8         31.8808   35.6575   24.0040 C.3         1 L04      -0.0232
      9 C9         33.3107   35.1924   23.5848 C.3         1 L04      -0.0166
     10 C10        34.0872   34.5802   24.7028 C.ar        1 L04      -0.0424
     11 C11        34.3910   35.3434   25.8559 C.ar        1 L04      -0.0596
     12 C12        35.1611   34.8131   26.9006 C.ar        1 L04      -0.0610
     13 C13        35.6769   33.5007   26.8281 C.ar        1 L04      -0.0267
     14 C14        35.3744   32.7303   25.6791 C.ar        1 L04      -0.0610
     15 C15        34.5958   33.2620   24.6316 C.ar        1 L04      -0.0596
     16 C16        29.9909   37.3388   23.7910 C.2         1 L04       0.1816
     17 C17        36.9772   31.3099   29.5987 C.ar        1 L04      -0.0282
     18 C18        32.1873   38.0932   22.8961 C.3         1 L04      -0.0186
     19 C19        27.8105   38.5157   23.2743 C.3         1 L04       0.1369
     20 C20        26.7627   38.1234   22.1788 C.3         1 L04      -0.0096
     21 C21        25.5377   39.0844   21.9997 C.3         1 L04      -0.0425
     22 C22        24.3656   38.7815   22.9759 C.3         1 L04      -0.0625
     23 C23        35.3883   39.8853   24.3636 C.3         1 L04      -0.0495
     24 C24        35.5925   40.8520   23.1496 C.3         1 L04      -0.0323
     25 C25        34.5672   42.0134   22.9644 C.3         1 L04       0.0356
     26 C26        32.1298   41.8462   22.6236 C.2         1 L04       0.2046
     27 C27        27.3137   38.2936   24.6288 C.2         1 L04       0.2292
     28 C28        33.4145   41.3235   20.8054 C.3         1 L04       0.0703
     29 C29        31.2513   41.4716   21.6538 C.ar        1 L04       0.0535
     30 C30        26.4744   39.4273   26.6521 C.ar        1 L04       0.0663
     31 C31        26.3018   40.7417   27.1456 C.ar        1 L04      -0.0413
     32 C32        25.8438   40.9713   28.4563 C.ar        1 L04      -0.0755
     33 C33        25.5623   39.8865   29.3035 C.ar        1 L04      -0.0772
     34 C34        25.7254   38.5744   28.8326 C.ar        1 L04      -0.0755
     35 C35        26.1752   38.3445   27.5188 C.ar        1 L04      -0.0413
     36 C36        31.9897   41.1550   20.5172 C.ar        1 L04      -0.0003
     37 C37        29.8513   41.3485   21.6657 C.ar        1 L04      -0.0484
     38 C38        31.3480   40.7435   19.3327 C.ar        1 L04      -0.0524
     39 C39        29.9421   40.6378   19.3235 C.ar        1 L04      -0.0641
     40 C40        29.1943   40.9343   20.4868 C.ar        1 L04      -0.0630
     41 C41        38.0760   32.0695   30.0462 C.ar        1 L04       0.1322
     42 C42        38.3937   33.2799   29.4104 C.ar        1 L04      -0.0282
     43 C43        37.6077   33.7376   28.3358 C.ar        1 L04      -0.0571
     44 N1         33.3771   41.7130   22.1942 N.am        1 L04      -0.2613
     45 N18        29.0665   37.8656   22.9829 N.am        1 L04      -0.2649
     46 N29        26.9175   39.3319   25.3599 N.am        1 L04      -0.2320
     47 O1         31.7725   42.1765   23.7487 O.2         1 L04      -0.3882
     48 O4         32.1424   37.9996   26.1410 O.co2       1 L04      -0.5687
     49 O5         31.7012   40.2270   25.6819 O.co2       1 L04      -0.5687
     50 O17        29.8587   37.3563   25.0115 O.2         1 L04      -0.3966
     51 O28        27.4302   37.1622   25.0873 O.2         1 L04      -0.3823
     52 F1         38.7929   31.6560   31.0540 F           1 L04      -0.1835
     53 H1         34.6442   37.9613   24.9689 H           1 L04       0.0286
     54 H2         34.8635   38.1156   23.2468 H           1 L04       0.0286
     55 H3         32.9251   39.9331   23.6126 H           1 L04       0.0467
     56 H4         24.1736   39.7413   20.4146 H           1 L04       0.0232
     57 H5         24.6734   38.0464   20.2756 H           1 L04       0.0232
     58 H6         25.7893   39.3506   19.8364 H           1 L04       0.0232
     59 H7         35.3904   31.2048   28.2267 H           1 L04       0.0606
     60 H8         30.9912   36.4470   22.2405 H           1 L04       0.0541
     61 H9         31.2133   34.7978   23.8605 H           1 L04       0.0315
     62 H10        31.8628   35.8961   25.0710 H           1 L04       0.0315
     63 H11        33.8970   36.0383   23.2284 H           1 L04       0.0430
     64 H12        33.2196   34.4950   22.7444 H           1 L04       0.0430
     65 H13        34.0506   36.2998   25.9464 H           1 L04       0.0559
     66 H14        35.3440   35.4014   27.7182 H           1 L04       0.0604
     67 H15        35.7455   31.7819   25.5795 H           1 L04       0.0604
     68 H16        34.4171   32.6880   23.8005 H           1 L04       0.0559
     69 H17        36.7380   30.4342   30.0667 H           1 L04       0.0604
     70 H18        32.9087   37.7511   22.1515 H           1 L04       0.0313
     71 H19        31.5658   38.8062   22.3338 H           1 L04       0.0313
     72 H20        28.0208   39.5806   23.1315 H           1 L04       0.0805
     73 H21        26.4105   37.1048   22.3633 H           1 L04       0.0315
     74 H22        27.3027   38.0948   21.2289 H           1 L04       0.0315
     75 H23        25.8736   40.1075   22.1870 H           1 L04       0.0298
     76 H24        24.6543   38.9599   24.0095 H           1 L04       0.0232
     77 H25        24.0397   37.7446   22.8777 H           1 L04       0.0232
     78 H26        23.5163   39.4322   22.7636 H           1 L04       0.0232
     79 H27        36.3807   39.4970   24.6302 H           1 L04       0.0267
     80 H28        35.0342   40.4383   25.2383 H           1 L04       0.0267
     81 H29        35.6788   40.2739   22.2282 H           1 L04       0.0285
     82 H30        36.5671   41.3324   23.2930 H           1 L04       0.0285
     83 H31        35.0682   42.8366   22.4450 H           1 L04       0.0523
     84 H32        34.3136   42.3959   23.9540 H           1 L04       0.0523
     85 H33        33.9418   40.3793   20.6573 H           1 L04       0.0699
     86 H34        33.8457   42.1095   20.1772 H           1 L04       0.0699
     87 H35        26.4992   41.5498   26.5479 H           1 L04       0.0502
     88 H36        25.7228   41.9270   28.7935 H           1 L04       0.0577
     89 H37        25.2370   40.0522   30.2603 H           1 L04       0.0487
     90 H38        25.5190   37.7813   29.4449 H           1 L04       0.0577
     91 H39        26.2648   37.3790   27.2112 H           1 L04       0.0502
     92 H40        29.3150   41.5521   22.5113 H           1 L04       0.0651
     93 H41        31.8936   40.5221   18.4968 H           1 L04       0.0569
     94 H42        29.4610   40.3399   18.4732 H           1 L04       0.0635
     95 H43        28.1766   40.8443   20.4753 H           1 L04       0.0572
     96 H44        39.1888   33.8412   29.7282 H           1 L04       0.0604
     97 H45        37.8621   34.6233   27.8903 H           1 L04       0.0606
     98 H46        29.3262   37.9005   22.0470 H           1 L04       0.1883
     99 H47        26.9647   40.1827   24.8947 H           1 L04       0.2257
@<TRIPOS>BOND
     1     1    23   1
     2     1     2   1
     3     2    18   1
     4     2     3   1
     5     3    49  ar
     6     3    48  ar
     7    18     7   1
     8     7    16   1
     9     7     8   1
    10     8     9   1
    11     9    10   1
    12    10    15  ar
    13    10    11  ar
    14    11    12  ar
    15    12    13  ar
    16    13    14  ar
    17    13     5   1
    18     5    43  ar
    19     5     6  ar
    20     6    17  ar
    21    17    41  ar
    22    41    42  ar
    23    42    43  ar
    24    14    15  ar
    25    16    50   2
    26    16    45  am
    27    45    19   1
    28    19    27   1
    29    19    20   1
    30    20    21   1
    31    21     4   1
    32    21    22   1
    33    27    51   2
    34    27    46  am
    35    46    30   1
    36    30    35  ar
    37    30    31  ar
    38    31    32  ar
    39    32    33  ar
    40    33    34  ar
    41    34    35  ar
    42    23    24   1
    43    24    25   1
    44    25    44   1
    45    44    28   1
    46    44    26  am
    47    26    47   2
    48    26    29   1
    49    29    37  ar
    50    29    36  ar
    51    36    28   1
    52    36    38  ar
    53    38    39  ar
    54    39    40  ar
    55    40    37  ar
    56    41    52   1
    57     1    53   1
    58     1    54   1
    59     2    55   1
    60     4    56   1
    61     4    57   1
    62     4    58   1
    63     6    59   1
    64     7    60   1
    65     8    61   1
    66     8    62   1
    67     9    63   1
    68     9    64   1
    69    11    65   1
    70    12    66   1
    71    14    67   1
    72    15    68   1
    73    17    69   1
    74    18    70   1
    75    18    71   1
    76    19    72   1
    77    20    73   1
    78    20    74   1
    79    21    75   1
    80    22    76   1
    81    22    77   1
    82    22    78   1
    83    23    79   1
    84    23    80   1
    85    24    81   1
    86    24    82   1
    87    25    83   1
    88    25    84   1
    89    28    85   1
    90    28    86   1
    91    31    87   1
    92    32    88   1
    93    33    89   1
    94    34    90   1
    95    35    91   1
    96    37    92   1
    97    38    93   1
    98    39    94   1
    99    40    95   1
   100    42    96   1
   101    43    97   1
   102    45    98   1
   103    46    99   1
@<TRIPOS>SUBSTRUCTURE
     1  L04      1

