@<TRIPOS>MOLECULE
1hnn_ligand_014
    27    28
SMALL
GAST_HUCK
****
This file was generated by PARSER (from files_GN.cpp)

@<TRIPOS>ATOM
      1 C4         31.3613   45.2392   19.6410 C.ar        1 SKF      -0.0647
      2 C5         31.2192   46.5254   20.1858 C.ar        1 SKF      -0.0489
      3 C6         29.9550   46.9953   20.5907 C.ar        1 SKF       0.0945
      4 C7         28.8346   46.1475   20.4672 C.ar        1 SKF      -0.0353
      5 S          29.7719   48.6054   21.2207 S.o2        1 SKF       0.0613
      6 C8         28.9658   44.8464   19.9303 C.ar        1 SKF       0.0053
      7 C9         30.2371   44.3965   19.4835 C.ar        1 SKF      -0.0308
      8 O1         29.1725   48.6067   22.6894 O.2         1 SKF      -0.1515
      9 O2         28.6914   49.3500   20.3225 O.2         1 SKF      -0.1515
     10 N          31.1430   49.5822   21.1842 N.am        1 SKF      -0.2618
     11 C1         27.7596   43.9852   19.7832 C.3         1 SKF      -0.0020
     12 C2         29.0879   42.4118   18.4127 C.3         1 SKF      -0.0238
     13 C3         30.4182   43.0465   18.8856 C.3         1 SKF       0.0189
     14 N1         28.0704   42.5748   19.4684 N.4         1 SKF       0.2394
     15 H1         32.2886   44.9233   19.3425 H           1 SKF       0.0538
     16 H2         32.0431   47.1150   20.2801 H           1 SKF       0.0561
     17 H3         27.9134   46.4776   20.7695 H           1 SKF       0.0558
     18 H4         31.1231   50.4166   20.6853 H           1 SKF       0.1634
     19 H5         31.8383   49.4350   21.8438 H           1 SKF       0.1634
     20 H6         27.1327   44.3921   18.9900 H           1 SKF       0.0964
     21 H7         27.1914   43.9919   20.7141 H           1 SKF       0.0964
     22 H8         29.2321   41.3457   18.2185 H           1 SKF       0.0836
     23 H9         28.7447   42.8827   17.4863 H           1 SKF       0.0836
     24 H10        30.8788   42.4043   19.6384 H           1 SKF       0.0463
     25 H11        31.0894   43.1016   18.0272 H           1 SKF       0.0463
     26 H12        27.2118   42.0949   19.1897 H           1 SKF       0.2028
     27 H13        28.4303   42.1274   20.3142 H           1 SKF       0.2028
@<TRIPOS>BOND
     1     1     2  ar
     2     1     7  ar
     3     2     3  ar
     4     3     4  ar
     5     3     5   1
     6     4     6  ar
     7     5     8   2
     8     5     9   2
     9     5    10  am
    10     6     7  ar
    11     6    11   1
    12     7    13   1
    13    11    14   1
    14    13    12   1
    15    12    14   1
    16     1    15   1
    17     2    16   1
    18     4    17   1
    19    10    18   1
    20    10    19   1
    21    11    20   1
    22    11    21   1
    23    12    22   1
    24    12    23   1
    25    13    24   1
    26    13    25   1
    27    14    26   1
    28    14    27   1
@<TRIPOS>SUBSTRUCTURE
     1  SKF      1

