@<TRIPOS>MOLECULE
1hnn_ligand_006
    27    28
SMALL
GAST_HUCK
****
This file was generated by PARSER (from files_GN.cpp)

@<TRIPOS>ATOM
      1 C4         27.7008   43.0563   18.7736 C.ar        1 SKF      -0.0647
      2 C5         27.6965   43.4571   20.1203 C.ar        1 SKF      -0.0489
      3 C6         27.9535   44.7980   20.4657 C.ar        1 SKF       0.0945
      4 C7         28.2439   45.7293   19.4478 C.ar        1 SKF      -0.0353
      5 S          27.8395   45.3318   22.1193 S.o2        1 SKF       0.0613
      6 C8         28.2191   45.3429   18.0881 C.ar        1 SKF       0.0053
      7 C9         27.9572   43.9900   17.7423 C.ar        1 SKF      -0.0308
      8 O1         29.2718   45.4302   22.7943 O.2         1 SKF      -0.1515
      9 O2         27.0589   44.2757   23.0124 O.2         1 SKF      -0.1515
     10 N          27.0342   46.7944   22.3316 N.am        1 SKF      -0.2618
     11 C1         28.4720   46.3580   17.0301 C.3         1 SKF      -0.0020
     12 C2         28.3936   44.6000   15.3007 C.3         1 SKF      -0.0238
     13 C3         27.8816   43.5498   16.3198 C.3         1 SKF       0.0189
     14 N1         27.9503   45.9470   15.7127 N.4         1 SKF       0.2394
     15 H1         27.5164   42.0734   18.5566 H           1 SKF       0.0538
     16 H2         27.4939   42.7596   20.8372 H           1 SKF       0.0561
     17 H3         28.4246   46.7058   19.6935 H           1 SKF       0.0558
     18 H4         26.1739   46.7893   22.7716 H           1 SKF       0.1634
     19 H5         27.4914   47.6336   22.1796 H           1 SKF       0.1634
     20 H6         29.5471   46.5308   16.9566 H           1 SKF       0.0964
     21 H7         27.9794   47.2992   17.2845 H           1 SKF       0.0964
     22 H8         27.9979   44.3817   14.3068 H           1 SKF       0.0836
     23 H9         29.4858   44.5685   15.2372 H           1 SKF       0.0836
     24 H10        26.8308   43.3413   16.1047 H           1 SKF       0.0463
     25 H11        28.4509   42.6265   16.1771 H           1 SKF       0.0463
     26 H12        28.2274   46.6405   15.0154 H           1 SKF       0.2028
     27 H13        26.9328   45.9463   15.7860 H           1 SKF       0.2028
@<TRIPOS>BOND
     1     1     2  ar
     2     1     7  ar
     3     2     3  ar
     4     3     4  ar
     5     3     5   1
     6     4     6  ar
     7     5     8   2
     8     5     9   2
     9     5    10  am
    10     6     7  ar
    11     6    11   1
    12     7    13   1
    13    11    14   1
    14    13    12   1
    15    12    14   1
    16     1    15   1
    17     2    16   1
    18     4    17   1
    19    10    18   1
    20    10    19   1
    21    11    20   1
    22    11    21   1
    23    12    22   1
    24    12    23   1
    25    13    24   1
    26    13    25   1
    27    14    26   1
    28    14    27   1
@<TRIPOS>SUBSTRUCTURE
     1  SKF      1

