@<TRIPOS>MOLECULE
1hnn_ligand_009
    27    28
SMALL
GAST_HUCK
****
This file was generated by PARSER (from files_GN.cpp)

@<TRIPOS>ATOM
      1 C4         27.5094   42.6354   18.1597 C.ar        1 SKF      -0.0647
      2 C5         28.6337   43.0785   18.8754 C.ar        1 SKF      -0.0489
      3 C6         29.5100   44.0239   18.3081 C.ar        1 SKF       0.0945
      4 C7         29.2725   44.4840   16.9951 C.ar        1 SKF      -0.0353
      5 S          30.8843   44.5716   19.2271 S.o2        1 SKF       0.0613
      6 C8         28.1785   43.9998   16.2455 C.ar        1 SKF       0.0053
      7 C9         27.2597   43.1025   16.8508 C.ar        1 SKF      -0.0308
      8 O1         30.4437   44.9806   20.6990 O.2         1 SKF      -0.1515
      9 O2         31.5453   45.8281   18.5130 O.2         1 SKF      -0.1515
     10 N          32.0429   43.3571   19.3019 N.am        1 SKF      -0.2618
     11 C1         28.0013   44.4265   14.8314 C.3         1 SKF      -0.0020
     12 C2         25.8006   43.3080   14.7638 C.3         1 SKF      -0.0238
     13 C3         26.0489   42.6246   16.1343 C.3         1 SKF       0.0189
     14 N1         27.0743   43.5621   14.0671 N.4         1 SKF       0.2394
     15 H1         26.8728   41.9666   18.5989 H           1 SKF       0.0538
     16 H2         28.7995   42.7157   19.8158 H           1 SKF       0.0561
     17 H3         29.9096   45.1615   16.5689 H           1 SKF       0.0558
     18 H4         32.9576   43.5798   19.5354 H           1 SKF       0.1634
     19 H5         31.7799   42.4267   19.2130 H           1 SKF       0.1634
     20 H6         28.9633   44.3938   14.3126 H           1 SKF       0.0964
     21 H7         27.6414   45.4592   14.8119 H           1 SKF       0.0964
     22 H8         25.2735   44.2564   14.9000 H           1 SKF       0.0836
     23 H9         25.1760   42.6660   14.1399 H           1 SKF       0.0836
     24 H10        25.1746   42.7959   16.7660 H           1 SKF       0.0463
     25 H11        26.1487   41.5496   15.9812 H           1 SKF       0.0463
     26 H12        27.5326   42.6647   13.9036 H           1 SKF       0.2028
     27 H13        26.8819   43.9973   13.1636 H           1 SKF       0.2028
@<TRIPOS>BOND
     1     1     2  ar
     2     1     7  ar
     3     2     3  ar
     4     3     4  ar
     5     3     5   1
     6     4     6  ar
     7     5     8   2
     8     5     9   2
     9     5    10  am
    10     6     7  ar
    11     6    11   1
    12     7    13   1
    13    11    14   1
    14    13    12   1
    15    12    14   1
    16     1    15   1
    17     2    16   1
    18     4    17   1
    19    10    18   1
    20    10    19   1
    21    11    20   1
    22    11    21   1
    23    12    22   1
    24    12    23   1
    25    13    24   1
    26    13    25   1
    27    14    26   1
    28    14    27   1
@<TRIPOS>SUBSTRUCTURE
     1  SKF      1

