@<TRIPOS>MOLECULE
1hnn_ligand_008
    27    28
SMALL
GAST_HUCK
****
This file was generated by PARSER (from files_GN.cpp)

@<TRIPOS>ATOM
      1 C4         28.6321   45.7482   16.2253 C.ar        1 SKF      -0.0647
      2 C5         28.6938   45.3289   17.5636 C.ar        1 SKF      -0.0489
      3 C6         28.5710   43.9627   17.8856 C.ar        1 SKF       0.0945
      4 C7         28.4072   43.0184   16.8490 C.ar        1 SKF      -0.0353
      5 S          28.6588   43.4265   19.5368 S.o2        1 SKF       0.0613
      6 C8         28.3605   43.4273   15.4965 C.ar        1 SKF       0.0053
      7 C9         28.4476   44.8128   15.1837 C.ar        1 SKF      -0.0308
      8 O1         27.7210   42.1724   19.8193 O.2         1 SKF      -0.1515
      9 O2         28.1516   44.5966   20.4898 O.2         1 SKF      -0.1515
     10 N          30.2358   43.0795   20.0005 N.am        1 SKF      -0.2618
     11 C1         28.1851   42.4149   14.4137 C.3         1 SKF      -0.0020
     12 C2         27.8362   44.2256   12.7882 C.3         1 SKF      -0.0238
     13 C3         28.3555   45.3067   13.7806 C.3         1 SKF       0.0189
     14 N1         28.4754   42.9317   13.0571 N.4         1 SKF       0.2394
     15 H1         28.7171   46.7471   16.0136 H           1 SKF       0.0538
     16 H2         28.8373   46.0287   18.2960 H           1 SKF       0.0561
     17 H3         28.3425   42.0243   17.0766 H           1 SKF       0.0558
     18 H4         30.5533   43.3869   20.8634 H           1 SKF       0.1634
     19 H5         30.7340   42.3890   19.5250 H           1 SKF       0.1634
     20 H6         27.1539   42.0497   14.4499 H           1 SKF       0.0964
     21 H7         28.8470   41.5659   14.5826 H           1 SKF       0.0964
     22 H8         28.0574   44.5266   11.7644 H           1 SKF       0.0836
     23 H9         26.7543   44.1020   12.8829 H           1 SKF       0.0836
     24 H10        29.3508   45.6403   13.4755 H           1 SKF       0.0463
     25 H11        27.6827   46.1686   13.7392 H           1 SKF       0.0463
     26 H12        28.1467   42.2527   12.3694 H           1 SKF       0.2028
     27 H13        29.4805   43.0559   12.9395 H           1 SKF       0.2028
@<TRIPOS>BOND
     1     1     2  ar
     2     1     7  ar
     3     2     3  ar
     4     3     4  ar
     5     3     5   1
     6     4     6  ar
     7     5     8   2
     8     5     9   2
     9     5    10  am
    10     6     7  ar
    11     6    11   1
    12     7    13   1
    13    11    14   1
    14    13    12   1
    15    12    14   1
    16     1    15   1
    17     2    16   1
    18     4    17   1
    19    10    18   1
    20    10    19   1
    21    11    20   1
    22    11    21   1
    23    12    22   1
    24    12    23   1
    25    13    24   1
    26    13    25   1
    27    14    26   1
    28    14    27   1
@<TRIPOS>SUBSTRUCTURE
     1  SKF      1

