@<TRIPOS>MOLECULE
1hnn_ligand_019
    27    28
SMALL
GAST_HUCK
****
This file was generated by PARSER (from files_GN.cpp)

@<TRIPOS>ATOM
      1 C4         28.6352   42.5721   17.2379 C.ar        1 SKF      -0.0647
      2 C5         28.1460   43.1514   16.0560 C.ar        1 SKF      -0.0489
      3 C6         28.2260   44.5454   15.8611 C.ar        1 SKF       0.0945
      4 C7         28.8114   45.3508   16.8588 C.ar        1 SKF      -0.0353
      5 S          27.6218   45.2794   14.4084 S.o2        1 SKF       0.0613
      6 C8         29.3277   44.7732   18.0396 C.ar        1 SKF       0.0053
      7 C9         29.2117   43.3743   18.2455 C.ar        1 SKF      -0.0308
      8 O1         26.7559   46.5806   14.7063 O.2         1 SKF      -0.1515
      9 O2         26.6594   44.2503   13.6674 O.2         1 SKF      -0.1515
     10 N          28.8252   45.6495   13.2978 N.am        1 SKF      -0.2618
     11 C1         29.9747   45.6407   19.0620 C.3         1 SKF      -0.0020
     12 C2         30.0008   43.7387   20.6325 C.3         1 SKF      -0.0238
     13 C3         29.6966   42.7301   19.4951 C.3         1 SKF       0.0189
     14 N1         30.7280   44.9015   20.0972 N.4         1 SKF       0.2394
     15 H1         28.5586   41.5570   17.3614 H           1 SKF       0.0538
     16 H2         27.7283   42.5485   15.3447 H           1 SKF       0.0561
     17 H3         28.8784   46.3636   16.7231 H           1 SKF       0.0558
     18 H4         28.7185   45.3970   12.3675 H           1 SKF       0.1634
     19 H5         29.5787   46.1956   13.5654 H           1 SKF       0.1634
     20 H6         29.2058   46.2515   19.5430 H           1 SKF       0.0964
     21 H7         30.6860   46.3042   18.5676 H           1 SKF       0.0964
     22 H8         30.6116   43.2551   21.3908 H           1 SKF       0.0836
     23 H9         29.0717   44.0699   21.1011 H           1 SKF       0.0836
     24 H10        30.6065   42.1755   19.2597 H           1 SKF       0.0463
     25 H11        28.9428   42.0233   19.8528 H           1 SKF       0.0463
     26 H12        30.9458   45.5434   20.8622 H           1 SKF       0.2028
     27 H13        31.6052   44.5737   19.6886 H           1 SKF       0.2028
@<TRIPOS>BOND
     1     1     2  ar
     2     1     7  ar
     3     2     3  ar
     4     3     4  ar
     5     3     5   1
     6     4     6  ar
     7     5     8   2
     8     5     9   2
     9     5    10  am
    10     6     7  ar
    11     6    11   1
    12     7    13   1
    13    11    14   1
    14    13    12   1
    15    12    14   1
    16     1    15   1
    17     2    16   1
    18     4    17   1
    19    10    18   1
    20    10    19   1
    21    11    20   1
    22    11    21   1
    23    12    22   1
    24    12    23   1
    25    13    24   1
    26    13    25   1
    27    14    26   1
    28    14    27   1
@<TRIPOS>SUBSTRUCTURE
     1  SKF      1

