@<TRIPOS>MOLECULE
1hnn_ligand_007
    27    28
SMALL
GAST_HUCK
****
This file was generated by PARSER (from files_GN.cpp)

@<TRIPOS>ATOM
      1 C4         28.1624   42.2233   14.9782 C.ar        1 SKF      -0.0647
      2 C5         27.9025   42.2033   13.5964 C.ar        1 SKF      -0.0489
      3 C6         27.8516   43.4047   12.8633 C.ar        1 SKF       0.0945
      4 C7         28.0628   44.6287   13.5319 C.ar        1 SKF      -0.0353
      5 S          27.4708   43.3918   11.1617 S.o2        1 SKF       0.0613
      6 C8         28.2840   44.6615   14.9274 C.ar        1 SKF       0.0053
      7 C9         28.3728   43.4440   15.6541 C.ar        1 SKF      -0.0308
      8 O1         25.9309   43.7416   10.9640 O.2         1 SKF      -0.1515
      9 O2         27.7604   41.9533   10.5477 O.2         1 SKF      -0.1515
     10 N          28.4024   44.5027   10.3156 N.am        1 SKF      -0.2618
     11 C1         28.3949   45.9750   15.6162 C.3         1 SKF      -0.0020
     12 C2         29.1392   44.7996   17.6641 C.3         1 SKF      -0.0238
     13 C3         28.6524   43.4336   17.1160 C.3         1 SKF       0.0189
     14 N1         28.3303   45.8934   17.0937 N.4         1 SKF       0.2394
     15 H1         28.1931   41.3365   15.4888 H           1 SKF       0.0538
     16 H2         27.7443   41.3044   13.1336 H           1 SKF       0.0561
     17 H3         28.0209   45.5067   13.0097 H           1 SKF       0.0558
     18 H4         28.6306   44.3151    9.3914 H           1 SKF       0.1634
     19 H5         28.9685   45.1076   10.8171 H           1 SKF       0.1634
     20 H6         27.5635   46.6142   15.3046 H           1 SKF       0.0964
     21 H7         29.3289   46.4620   15.3197 H           1 SKF       0.0964
     22 H8         30.1921   44.9525   17.4131 H           1 SKF       0.0836
     23 H9         29.0400   44.8167   18.7519 H           1 SKF       0.0836
     24 H10        29.4210   42.6859   17.3388 H           1 SKF       0.0463
     25 H11        27.7329   43.1404   17.6359 H           1 SKF       0.0463
     26 H12        27.3548   45.7450   17.3602 H           1 SKF       0.2028
     27 H13        28.6440   46.7848   17.4823 H           1 SKF       0.2028
@<TRIPOS>BOND
     1     1     2  ar
     2     1     7  ar
     3     2     3  ar
     4     3     4  ar
     5     3     5   1
     6     4     6  ar
     7     5     8   2
     8     5     9   2
     9     5    10  am
    10     6     7  ar
    11     6    11   1
    12     7    13   1
    13    11    14   1
    14    13    12   1
    15    12    14   1
    16     1    15   1
    17     2    16   1
    18     4    17   1
    19    10    18   1
    20    10    19   1
    21    11    20   1
    22    11    21   1
    23    12    22   1
    24    12    23   1
    25    13    24   1
    26    13    25   1
    27    14    26   1
    28    14    27   1
@<TRIPOS>SUBSTRUCTURE
     1  SKF      1

