@<TRIPOS>MOLECULE
1hnn_ligand_015
    27    28
SMALL
GAST_HUCK
****
This file was generated by PARSER (from files_GN.cpp)

@<TRIPOS>ATOM
      1 C4         26.0103   42.9877   16.4972 C.ar        1 SKF      -0.0647
      2 C5         26.4153   43.3022   15.1905 C.ar        1 SKF      -0.0489
      3 C6         27.7692   43.5740   14.9198 C.ar        1 SKF       0.0945
      4 C7         28.7030   43.5612   15.9758 C.ar        1 SKF      -0.0353
      5 S          28.2776   43.9705   13.3052 S.o2        1 SKF       0.0613
      6 C8         28.3023   43.2647   17.2967 C.ar        1 SKF       0.0053
      7 C9         26.9436   42.9423   17.5559 C.ar        1 SKF      -0.0308
      8 O1         27.2589   43.4511   12.1993 O.2         1 SKF      -0.1515
      9 O2         29.7041   43.3047   13.0798 O.2         1 SKF      -0.1515
     10 N          28.4666   45.6353   13.1884 N.am        1 SKF      -0.2618
     11 C1         29.3131   43.2682   18.3897 C.3         1 SKF      -0.0020
     12 C2         27.6335   42.2248   19.8804 C.3         1 SKF      -0.0238
     13 C3         26.4755   42.5704   18.9177 C.3         1 SKF       0.0189
     14 N1         28.7336   43.1946   19.7506 N.4         1 SKF       0.2394
     15 H1         25.0240   42.7945   16.6750 H           1 SKF       0.0538
     16 H2         25.7159   43.3289   14.4440 H           1 SKF       0.0561
     17 H3         29.6822   43.7796   15.7863 H           1 SKF       0.0558
     18 H4         29.0934   46.0083   12.5496 H           1 SKF       0.1634
     19 H5         27.9327   46.2228   13.7445 H           1 SKF       0.1634
     20 H6         29.9025   44.1870   18.3412 H           1 SKF       0.0964
     21 H7         29.9892   42.4238   18.2448 H           1 SKF       0.0964
     22 H8         28.0143   41.2243   19.6666 H           1 SKF       0.0836
     23 H9         27.2770   42.2365   20.9103 H           1 SKF       0.0836
     24 H10        25.8120   41.7046   18.8540 H           1 SKF       0.0463
     25 H11        25.9020   43.3989   19.3362 H           1 SKF       0.0463
     26 H12        28.3859   44.1194   20.0145 H           1 SKF       0.2028
     27 H13        29.4515   42.9038   20.4150 H           1 SKF       0.2028
@<TRIPOS>BOND
     1     1     2  ar
     2     1     7  ar
     3     2     3  ar
     4     3     4  ar
     5     3     5   1
     6     4     6  ar
     7     5     8   2
     8     5     9   2
     9     5    10  am
    10     6     7  ar
    11     6    11   1
    12     7    13   1
    13    11    14   1
    14    13    12   1
    15    12    14   1
    16     1    15   1
    17     2    16   1
    18     4    17   1
    19    10    18   1
    20    10    19   1
    21    11    20   1
    22    11    21   1
    23    12    22   1
    24    12    23   1
    25    13    24   1
    26    13    25   1
    27    14    26   1
    28    14    27   1
@<TRIPOS>SUBSTRUCTURE
     1  SKF      1

