@<TRIPOS>MOLECULE
1hnn_ligand_001
    27    28
SMALL
GAST_HUCK
****
This file was generated by PARSER (from files_GN.cpp)

@<TRIPOS>ATOM
      1 C4         28.5382   42.4212   16.8303 C.ar        1 SKF      -0.0647
      2 C5         28.8752   42.9293   18.0981 C.ar        1 SKF      -0.0489
      3 C6         29.0217   44.3181   18.2888 C.ar        1 SKF       0.0945
      4 C7         28.8467   45.1895   17.1966 C.ar        1 SKF      -0.0353
      5 S          29.3997   44.9516   19.8640 S.o2        1 SKF       0.0613
      6 C8         28.5286   44.6887   15.9161 C.ar        1 SKF       0.0053
      7 C9         28.3497   43.2932   15.7318 C.ar        1 SKF      -0.0308
      8 O1         29.7407   46.5055   19.8469 O.2         1 SKF      -0.1515
      9 O2         30.6923   44.1784   20.3783 O.2         1 SKF      -0.1515
     10 N          28.1780   44.6238   20.9667 N.am        1 SKF      -0.2618
     11 C1         28.3524   45.6414   14.7897 C.3         1 SKF      -0.0020
     12 C2         27.4501   43.7861   13.4084 C.3         1 SKF      -0.0238
     13 C3         27.9783   42.7259   14.4081 C.3         1 SKF       0.0189
     14 N1         28.2823   45.0033   13.4569 N.4         1 SKF       0.2394
     15 H1         28.4242   41.4133   16.7157 H           1 SKF       0.0538
     16 H2         29.0032   42.2802   18.8796 H           1 SKF       0.0561
     17 H3         28.9534   46.1995   17.3283 H           1 SKF       0.0558
     18 H4         28.3873   44.1760   21.7990 H           1 SKF       0.1634
     19 H5         27.2517   44.7590   20.7151 H           1 SKF       0.1634
     20 H6         29.1927   46.3406   14.7629 H           1 SKF       0.0964
     21 H7         27.4383   46.2175   14.9624 H           1 SKF       0.0964
     22 H8         26.4159   44.0403   13.6562 H           1 SKF       0.0836
     23 H9         27.4703   43.3811   12.3950 H           1 SKF       0.0836
     24 H10        27.1975   41.9698   14.5388 H           1 SKF       0.0463
     25 H11        28.8559   42.2387   13.9792 H           1 SKF       0.0463
     26 H12        29.2283   44.7617   13.1539 H           1 SKF       0.2028
     27 H13        27.9112   45.6908   12.7978 H           1 SKF       0.2028
@<TRIPOS>BOND
     1     1     2  ar
     2     1     7  ar
     3     2     3  ar
     4     3     4  ar
     5     3     5   1
     6     4     6  ar
     7     5     8   2
     8     5     9   2
     9     5    10  am
    10     6     7  ar
    11     6    11   1
    12     7    13   1
    13    11    14   1
    14    13    12   1
    15    12    14   1
    16     1    15   1
    17     2    16   1
    18     4    17   1
    19    10    18   1
    20    10    19   1
    21    11    20   1
    22    11    21   1
    23    12    22   1
    24    12    23   1
    25    13    24   1
    26    13    25   1
    27    14    26   1
    28    14    27   1
@<TRIPOS>SUBSTRUCTURE
     1  SKF      1

