@<TRIPOS>MOLECULE
1hnn_ligand_005
    27    28
SMALL
GAST_HUCK
****
This file was generated by PARSER (from files_GN.cpp)

@<TRIPOS>ATOM
      1 C4         29.8677   45.0020   18.6113 C.ar        1 SKF      -0.0647
      2 C5         29.2730   44.1408   17.6775 C.ar        1 SKF      -0.0489
      3 C6         28.0297   43.5380   17.9502 C.ar        1 SKF       0.0945
      4 C7         27.3900   43.8048   19.1819 C.ar        1 SKF      -0.0353
      5 S          27.2922   42.4864   16.7673 S.o2        1 SKF       0.0613
      6 C8         27.9762   44.6753   20.1307 C.ar        1 SKF       0.0053
      7 C9         29.2223   45.2931   19.8318 C.ar        1 SKF      -0.0308
      8 O1         25.8068   42.9403   16.4353 O.2         1 SKF      -0.1515
      9 O2         27.2055   41.0362   17.4155 O.2         1 SKF      -0.1515
     10 N          28.1493   42.3561   15.3247 N.am        1 SKF      -0.2618
     11 C1         27.2704   44.9834   21.4033 C.3         1 SKF      -0.0020
     12 C2         28.9594   46.7260   21.9125 C.3         1 SKF      -0.0238
     13 C3         29.8956   46.2123   20.7868 C.3         1 SKF       0.0189
     14 N1         28.1098   45.6328   22.4346 N.4         1 SKF       0.2394
     15 H1         30.7694   45.4260   18.3840 H           1 SKF       0.0538
     16 H2         29.7550   43.9598   16.7980 H           1 SKF       0.0561
     17 H3         26.4880   43.3669   19.3887 H           1 SKF       0.0558
     18 H4         28.3850   41.4784   14.9850 H           1 SKF       0.1634
     19 H5         28.6287   43.1254   14.9915 H           1 SKF       0.1634
     20 H6         26.9059   44.0594   21.8521 H           1 SKF       0.0964
     21 H7         26.4114   45.6263   21.1893 H           1 SKF       0.0964
     22 H8         28.3203   47.5311   21.5326 H           1 SKF       0.0836
     23 H9         29.5633   47.1261   22.7337 H           1 SKF       0.0836
     24 H10        30.3023   47.0764   20.2548 H           1 SKF       0.0463
     25 H11        30.7351   45.6776   21.2303 H           1 SKF       0.0463
     26 H12        28.7066   44.9082   22.8459 H           1 SKF       0.2028
     27 H13        27.4954   46.0050   23.1654 H           1 SKF       0.2028
@<TRIPOS>BOND
     1     1     2  ar
     2     1     7  ar
     3     2     3  ar
     4     3     4  ar
     5     3     5   1
     6     4     6  ar
     7     5     8   2
     8     5     9   2
     9     5    10  am
    10     6     7  ar
    11     6    11   1
    12     7    13   1
    13    11    14   1
    14    13    12   1
    15    12    14   1
    16     1    15   1
    17     2    16   1
    18     4    17   1
    19    10    18   1
    20    10    19   1
    21    11    20   1
    22    11    21   1
    23    12    22   1
    24    12    23   1
    25    13    24   1
    26    13    25   1
    27    14    26   1
    28    14    27   1
@<TRIPOS>SUBSTRUCTURE
     1  SKF      1

