@<TRIPOS>MOLECULE
1hnn_ligand_018
    27    28
SMALL
GAST_HUCK
****
This file was generated by PARSER (from files_GN.cpp)

@<TRIPOS>ATOM
      1 C4         30.4657   46.7224   20.7066 C.ar        1 SKF      -0.0647
      2 C5         29.3135   46.8160   21.5037 C.ar        1 SKF      -0.0489
      3 C6         28.5187   45.6778   21.7355 C.ar        1 SKF       0.0945
      4 C7         28.8703   44.4537   21.1284 C.ar        1 SKF      -0.0353
      5 S          27.1208   45.7714   22.7699 S.o2        1 SKF       0.0613
      6 C8         30.0300   44.3476   20.3263 C.ar        1 SKF       0.0053
      7 C9         30.8527   45.4895   20.1372 C.ar        1 SKF      -0.0308
      8 O1         27.2809   44.8415   24.0505 O.2         1 SKF      -0.1515
      9 O2         25.8872   45.2452   21.9158 O.2         1 SKF      -0.1515
     10 N          26.7141   47.3220   23.2766 N.am        1 SKF      -0.2618
     11 C1         30.3941   43.0421   19.7097 C.3         1 SKF      -0.0020
     12 C2         32.5682   43.9925   19.0193 C.3         1 SKF      -0.0238
     13 C3         32.0634   45.4329   19.2803 C.3         1 SKF       0.0189
     14 N1         31.4299   43.1351   18.6571 N.4         1 SKF       0.2394
     15 H1         31.0273   47.5629   20.5549 H           1 SKF       0.0538
     16 H2         29.0608   47.7205   21.9081 H           1 SKF       0.0561
     17 H3         28.2702   43.6327   21.2578 H           1 SKF       0.0558
     18 H4         25.7780   47.5493   23.4038 H           1 SKF       0.1634
     19 H5         27.3801   48.0265   23.2637 H           1 SKF       0.1634
     20 H6         29.5127   42.5850   19.2558 H           1 SKF       0.0964
     21 H7         30.7604   42.3726   20.4906 H           1 SKF       0.0964
     22 H8         33.0679   43.5870   19.9005 H           1 SKF       0.0836
     23 H9         33.2870   43.9812   18.2002 H           1 SKF       0.0836
     24 H10        32.8796   46.0061   19.7226 H           1 SKF       0.0463
     25 H11        31.8006   45.8995   18.3313 H           1 SKF       0.0463
     26 H12        31.0137   43.5015   17.8001 H           1 SKF       0.2028
     27 H13        31.7845   42.2000   18.4715 H           1 SKF       0.2028
@<TRIPOS>BOND
     1     1     2  ar
     2     1     7  ar
     3     2     3  ar
     4     3     4  ar
     5     3     5   1
     6     4     6  ar
     7     5     8   2
     8     5     9   2
     9     5    10  am
    10     6     7  ar
    11     6    11   1
    12     7    13   1
    13    11    14   1
    14    13    12   1
    15    12    14   1
    16     1    15   1
    17     2    16   1
    18     4    17   1
    19    10    18   1
    20    10    19   1
    21    11    20   1
    22    11    21   1
    23    12    22   1
    24    12    23   1
    25    13    24   1
    26    13    25   1
    27    14    26   1
    28    14    27   1
@<TRIPOS>SUBSTRUCTURE
     1  SKF      1

