@<TRIPOS>MOLECULE
1hnn_ligand_011
    27    28
SMALL
GAST_HUCK
****
This file was generated by PARSER (from files_GN.cpp)

@<TRIPOS>ATOM
      1 C4         27.7231   45.8970   16.7886 C.ar        1 SKF      -0.0647
      2 C5         28.1659   46.5020   17.9787 C.ar        1 SKF      -0.0489
      3 C6         28.6333   45.7130   19.0492 C.ar        1 SKF       0.0945
      4 C7         28.6284   44.3090   18.9211 C.ar        1 SKF      -0.0353
      5 S          29.1873   46.4507   20.5255 S.o2        1 SKF       0.0613
      6 C8         28.1683   43.6906   17.7385 C.ar        1 SKF       0.0053
      7 C9         27.7375   44.4922   16.6469 C.ar        1 SKF      -0.0308
      8 O1         29.4573   48.0110   20.3756 O.2         1 SKF      -0.1515
      9 O2         30.5544   45.7350   20.9061 O.2         1 SKF      -0.1515
     10 N          28.1123   46.1698   21.7851 N.am        1 SKF      -0.2618
     11 C1         28.1600   42.2086   17.6493 C.3         1 SKF      -0.0020
     12 C2         27.6408   42.3944   15.2236 C.3         1 SKF      -0.0238
     13 C3         27.2725   43.8913   15.3710 C.3         1 SKF       0.0189
     14 N1         27.4073   41.6721   16.4928 N.4         1 SKF       0.2394
     15 H1         27.3894   46.4922   16.0265 H           1 SKF       0.0538
     16 H2         28.1286   47.5205   18.0548 H           1 SKF       0.0561
     17 H3         28.9520   43.7303   19.7006 H           1 SKF       0.0558
     18 H4         28.4327   46.1524   22.6986 H           1 SKF       0.1634
     19 H5         27.1550   46.1711   21.6103 H           1 SKF       0.1634
     20 H6         27.6993   41.7898   18.5455 H           1 SKF       0.0964
     21 H7         29.1902   41.8499   17.5987 H           1 SKF       0.0964
     22 H8         28.6876   42.2911   14.9359 H           1 SKF       0.0836
     23 H9         27.0271   41.9446   14.4395 H           1 SKF       0.0836
     24 H10        27.7100   44.4288   14.5261 H           1 SKF       0.0463
     25 H11        26.1855   44.0016   15.3168 H           1 SKF       0.0463
     26 H12        26.4070   41.7188   16.7075 H           1 SKF       0.2028
     27 H13        27.6684   40.6910   16.3705 H           1 SKF       0.2028
@<TRIPOS>BOND
     1     1     2  ar
     2     1     7  ar
     3     2     3  ar
     4     3     4  ar
     5     3     5   1
     6     4     6  ar
     7     5     8   2
     8     5     9   2
     9     5    10  am
    10     6     7  ar
    11     6    11   1
    12     7    13   1
    13    11    14   1
    14    13    12   1
    15    12    14   1
    16     1    15   1
    17     2    16   1
    18     4    17   1
    19    10    18   1
    20    10    19   1
    21    11    20   1
    22    11    21   1
    23    12    22   1
    24    12    23   1
    25    13    24   1
    26    13    25   1
    27    14    26   1
    28    14    27   1
@<TRIPOS>SUBSTRUCTURE
     1  SKF      1

