@<TRIPOS>MOLECULE
1hnn_ligand_010
    27    28
SMALL
GAST_HUCK
****
This file was generated by PARSER (from files_GN.cpp)

@<TRIPOS>ATOM
      1 C4         27.0825   42.7936   19.2213 C.ar        1 SKF      -0.0647
      2 C5         27.7049   43.6626   20.1339 C.ar        1 SKF      -0.0489
      3 C6         28.3862   44.8060   19.6726 C.ar        1 SKF       0.0945
      4 C7         28.4434   45.0628   18.2884 C.ar        1 SKF      -0.0353
      5 S          29.1532   45.8958   20.7952 S.o2        1 SKF       0.0613
      6 C8         27.8425   44.1825   17.3610 C.ar        1 SKF       0.0053
      7 C9         27.1254   43.0500   17.8329 C.ar        1 SKF      -0.0308
      8 O1         29.4421   47.3254   20.1596 O.2         1 SKF      -0.1515
      9 O2         30.5343   45.2123   21.1881 O.2         1 SKF      -0.1515
     10 N          28.2675   46.0609   22.2141 N.am        1 SKF      -0.2618
     11 C1         27.9405   44.4721   15.9053 C.3         1 SKF      -0.0020
     12 C2         26.2923   42.6802   15.4609 C.3         1 SKF      -0.0238
     13 C3         26.4433   42.1151   16.8958 C.3         1 SKF       0.0189
     14 N1         27.5463   43.3348   15.0422 N.4         1 SKF       0.2394
     15 H1         26.5866   41.9733   19.5781 H           1 SKF       0.0538
     16 H2         27.6527   43.4568   21.1345 H           1 SKF       0.0561
     17 H3         28.9333   45.8956   17.9506 H           1 SKF       0.0558
     18 H4         28.7185   46.2793   23.0440 H           1 SKF       0.1634
     19 H5         27.3036   45.9501   22.1993 H           1 SKF       0.1634
     20 H6         28.9720   44.7244   15.6504 H           1 SKF       0.0964
     21 H7         27.3128   45.3362   15.6760 H           1 SKF       0.0964
     22 H8         25.4721   43.4027   15.4244 H           1 SKF       0.0836
     23 H9         26.0637   41.8704   14.7649 H           1 SKF       0.0836
     24 H10        25.4452   41.8730   17.2720 H           1 SKF       0.0463
     25 H11        27.0251   41.1905   16.8568 H           1 SKF       0.0463
     26 H12        28.2927   42.6366   15.0678 H           1 SKF       0.2028
     27 H13        27.4452   43.6661   14.0803 H           1 SKF       0.2028
@<TRIPOS>BOND
     1     1     2  ar
     2     1     7  ar
     3     2     3  ar
     4     3     4  ar
     5     3     5   1
     6     4     6  ar
     7     5     8   2
     8     5     9   2
     9     5    10  am
    10     6     7  ar
    11     6    11   1
    12     7    13   1
    13    11    14   1
    14    13    12   1
    15    12    14   1
    16     1    15   1
    17     2    16   1
    18     4    17   1
    19    10    18   1
    20    10    19   1
    21    11    20   1
    22    11    21   1
    23    12    22   1
    24    12    23   1
    25    13    24   1
    26    13    25   1
    27    14    26   1
    28    14    27   1
@<TRIPOS>SUBSTRUCTURE
     1  SKF      1

