@<TRIPOS>MOLECULE
1hnn_ligand_004
    27    28
SMALL
GAST_HUCK
****
This file was generated by PARSER (from files_GN.cpp)

@<TRIPOS>ATOM
      1 C4         29.0679   45.6328   16.1462 C.ar        1 SKF      -0.0647
      2 C5         30.0144   45.6480   17.1821 C.ar        1 SKF      -0.0489
      3 C6         30.1510   44.5369   18.0396 C.ar        1 SKF       0.0945
      4 C7         29.3102   43.4194   17.8622 C.ar        1 SKF      -0.0353
      5 S          31.3211   44.5361   19.3296 S.o2        1 SKF       0.0613
      6 C8         28.3379   43.4027   16.8362 C.ar        1 SKF       0.0053
      7 C9         28.2429   44.5031   15.9419 C.ar        1 SKF      -0.0308
      8 O1         30.5814   44.5515   20.7352 O.2         1 SKF      -0.1515
      9 O2         32.2280   45.8411   19.2497 O.2         1 SKF      -0.1515
     10 N          32.3701   43.2262   19.2486 N.am        1 SKF      -0.2618
     11 C1         27.4324   42.2306   16.7024 C.3         1 SKF      -0.0020
     12 C2         26.6313   43.1302   14.5381 C.3         1 SKF      -0.0238
     13 C3         27.2612   44.5158   14.8231 C.3         1 SKF       0.0189
     14 N1         26.2761   42.4707   15.8126 N.4         1 SKF       0.2394
     15 H1         29.0052   46.4444   15.5227 H           1 SKF       0.0538
     16 H2         30.6060   46.4739   17.2913 H           1 SKF       0.0561
     17 H3         29.3876   42.6208   18.4984 H           1 SKF       0.0558
     18 H4         33.2829   43.3161   19.5733 H           1 SKF       0.1634
     19 H5         32.0342   42.3533   18.9919 H           1 SKF       0.1634
     20 H6         27.0301   41.9668   17.6823 H           1 SKF       0.0964
     21 H7         28.0121   41.3793   16.3331 H           1 SKF       0.0964
     22 H8         27.3378   42.5055   13.9838 H           1 SKF       0.0836
     23 H9         25.7301   43.2465   13.9307 H           1 SKF       0.0836
     24 H10        27.7445   44.8666   13.9064 H           1 SKF       0.0463
     25 H11        26.4683   45.2194   15.0891 H           1 SKF       0.0463
     26 H12        25.6056   43.0688   16.3039 H           1 SKF       0.2028
     27 H13        25.8274   41.5782   15.6062 H           1 SKF       0.2028
@<TRIPOS>BOND
     1     1     2  ar
     2     1     7  ar
     3     2     3  ar
     4     3     4  ar
     5     3     5   1
     6     4     6  ar
     7     5     8   2
     8     5     9   2
     9     5    10  am
    10     6     7  ar
    11     6    11   1
    12     7    13   1
    13    11    14   1
    14    13    12   1
    15    12    14   1
    16     1    15   1
    17     2    16   1
    18     4    17   1
    19    10    18   1
    20    10    19   1
    21    11    20   1
    22    11    21   1
    23    12    22   1
    24    12    23   1
    25    13    24   1
    26    13    25   1
    27    14    26   1
    28    14    27   1
@<TRIPOS>SUBSTRUCTURE
     1  SKF      1

