@<TRIPOS>MOLECULE
1igj_ligand_027
    81    86
SMALL
GAST_HUCK
****
This file was generated by PARSER (from files_GN.cpp)

@<TRIPOS>ATOM
      1 C1        -13.8068   29.2604   30.3428 C.3         1 DGX      -0.0448
      2 C2        -12.4544   28.9013   31.0082 C.3         1 DGX      -0.0260
      3 C3        -12.0157   27.4717   30.5840 C.3         1 DGX       0.0620
      4 O3        -11.8232   27.2700   29.1620 O.3         1 DGX      -0.3480
      5 C4        -13.1055   26.4668   31.0421 C.3         1 DGX      -0.0232
      6 C5        -14.5145   26.7950   30.4380 C.3         1 DGX      -0.0330
      7 C6        -15.5705   25.7341   30.8800 C.3         1 DGX      -0.0493
      8 C7        -16.0178   25.9064   32.3507 C.3         1 DGX      -0.0470
      9 C8        -16.5070   27.3505   32.6835 C.3         1 DGX      -0.0079
     10 C9        -15.4691   28.4398   32.2179 C.3         1 DGX      -0.0276
     11 C10       -14.9914   28.2829   30.7055 C.3         1 DGX      -0.0258
     12 C11       -16.0116   29.8549   32.5867 C.3         1 DGX      -0.0223
     13 C12       -16.3391   29.9938   34.0923 C.3         1 DGX       0.0664
     14 O12       -16.7260   31.3464   34.3542 O.3         1 DGX      -0.3909
     15 C13       -17.3842   28.9344   34.6414 C.3         1 DGX       0.0405
     16 C14       -16.9460   27.4852   34.1997 C.3         1 DGX       0.0799
     17 O14       -18.0112   26.5398   34.4127 O.3         1 DGX      -0.3874
     18 C15       -15.8599   27.1062   35.2428 C.3         1 DGX      -0.0200
     19 C16       -16.3193   27.7258   36.5758 C.3         1 DGX      -0.0318
     20 C17       -17.2859   28.8993   36.2263 C.3         1 DGX       0.0177
     21 C18       -18.8111   29.3138   34.1008 C.3         1 DGX      -0.0516
     22 C19       -16.1436   28.6408   29.6966 C.3         1 DGX      -0.0590
     23 C20       -18.5408   28.9079   37.0150 C.2         1 DGX      -0.0063
     24 C21       -19.3865   27.7747   37.3532 C.3         1 DGX       0.1204
     25 O21       -20.4528   28.3903   38.0738 O.3         1 DGX      -0.2665
     26 C22       -19.0895   30.0193   37.5115 C.2         1 DGX       0.0017
     27 C23       -20.2393   29.7184   38.1569 C.2         1 DGX       0.2187
     28 O23       -21.0436   30.5988   38.7846 O.2         1 DGX      -0.3870
     29 C1X       -10.9366   28.1211   28.4131 C.3         1 DGX       0.1624
     30 C2X        -9.5585   28.3407   29.0964 C.3         1 DGX       0.0270
     31 C3X        -8.6478   29.1775   28.1659 C.3         1 DGX       0.0881
     32 O3X        -9.1644   30.5038   28.0207 O.3         1 DGX      -0.3890
     33 C4X        -8.5480   28.4906   26.7745 C.3         1 DGX       0.1070
     34 O4X        -7.7298   29.2702   25.9059 O.3         1 DGX      -0.3867
     35 C5X        -9.9727   28.2500   26.1803 C.3         1 DGX       0.0871
     36 O5X       -10.7639   27.4914   27.1261 O.3         1 DGX      -0.3456
     37 C6X        -9.9675   27.4717   24.8450 C.3         1 DGX      -0.0361
     38 H1        -14.0445   30.2918   30.5854 H           1 DGX       0.0271
     39 H2        -13.6531   29.2482   29.2620 H           1 DGX       0.0271
     40 H3        -12.5362   28.9550   32.0967 H           1 DGX       0.0290
     41 H4        -11.6960   29.6332   30.7233 H           1 DGX       0.0290
     42 H5        -11.0826   27.2209   31.0960 H           1 DGX       0.0597
     43 H6        -13.1534   26.4794   32.1309 H           1 DGX       0.0293
     44 H7        -12.8024   25.4599   30.7435 H           1 DGX       0.0293
     45 H8        -14.4003   26.6596   29.3568 H           1 DGX       0.0307
     46 H9        -15.1664   24.7265   30.7507 H           1 DGX       0.0268
     47 H10       -16.4503   25.8009   30.2355 H           1 DGX       0.0268
     48 H11       -15.1848   25.6309   33.0000 H           1 DGX       0.0269
     49 H12       -16.8236   25.1900   32.5389 H           1 DGX       0.0269
     50 H13       -17.4146   27.5080   32.0928 H           1 DGX       0.0332
     51 H14       -14.5847   28.2884   32.8334 H           1 DGX       0.0310
     52 H15       -16.9005   30.0886   32.0010 H           1 DGX       0.0293
     53 H16       -15.2675   30.6171   32.3632 H           1 DGX       0.0293
     54 H17       -15.3910   29.8685   34.6232 H           1 DGX       0.0602
     55 H18       -17.4253   31.5605   33.7006 H           1 DGX       0.2098
     56 H19       -18.6672   26.6926   33.6986 H           1 DGX       0.2102
     57 H20       -14.8861   27.5165   34.9732 H           1 DGX       0.0295
     58 H21       -15.7482   26.0233   35.3435 H           1 DGX       0.0295
     59 H22       -15.4517   28.0842   37.1400 H           1 DGX       0.0301
     60 H23       -16.7935   26.9475   37.1743 H           1 DGX       0.0301
     61 H24       -16.7532   29.8023   36.5492 H           1 DGX       0.0550
     62 H25       -19.1233   30.2820   34.4935 H           1 DGX       0.0239
     63 H26       -19.5615   28.5855   34.3985 H           1 DGX       0.0239
     64 H27       -18.8337   29.3644   33.0134 H           1 DGX       0.0239
     65 H28       -15.8386   28.4487   28.6634 H           1 DGX       0.0235
     66 H29       -16.4243   29.6940   29.7567 H           1 DGX       0.0235
     67 H30       -17.0329   28.0467   29.8852 H           1 DGX       0.0235
     68 H31       -18.8877   27.0594   38.0081 H           1 DGX       0.0859
     69 H32       -19.7760   27.2649   36.4723 H           1 DGX       0.0859
     70 H33       -18.7340   30.9415   37.4136 H           1 DGX       0.0295
     71 H34       -11.4235   29.0829   28.2416 H           1 DGX       0.0910
     72 H35        -9.0938   27.3706   29.2960 H           1 DGX       0.0340
     73 H36        -9.6746   28.8615   30.0491 H           1 DGX       0.0340
     74 H37        -7.6553   29.2541   28.6143 H           1 DGX       0.0621
     75 H38        -9.2016   30.8807   28.9254 H           1 DGX       0.2099
     76 H39        -8.0618   27.5203   26.9076 H           1 DGX       0.0645
     77 H40        -6.8329   29.1850   26.2939 H           1 DGX       0.2100
     78 H41       -10.4555   29.2164   25.9866 H           1 DGX       0.0621
     79 H42       -10.9846   27.3922   24.4588 H           1 DGX       0.0255
     80 H43        -9.5773   26.4651   24.9902 H           1 DGX       0.0255
     81 H44        -9.3588   27.9935   24.1061 H           1 DGX       0.0255
@<TRIPOS>BOND
     1    11     1   1
     2     1     2   1
     3     2     3   1
     4     3     5   1
     5     3     4   1
     6     4    29   1
     7    29    36   1
     8    29    30   1
     9    30    31   1
    10    31    33   1
    11    31    32   1
    12    33    35   1
    13    33    34   1
    14    35    37   1
    15    36    35   1
    16     5     6   1
    17    11     6   1
    18     6     7   1
    19     7     8   1
    20     8     9   1
    21     9    16   1
    22     9    10   1
    23    10    12   1
    24    10    11   1
    25    11    22   1
    26    12    13   1
    27    13    15   1
    28    13    14   1
    29    15    21   1
    30    15    20   1
    31    15    16   1
    32    16    18   1
    33    16    17   1
    34    18    19   1
    35    20    19   1
    36    20    23   1
    37    23    26   2
    38    23    24   1
    39    24    25   1
    40    25    27   1
    41    27    28   2
    42    27    26   1
    43     1    38   1
    44     1    39   1
    45     2    40   1
    46     2    41   1
    47     3    42   1
    48     5    43   1
    49     5    44   1
    50     6    45   1
    51     7    46   1
    52     7    47   1
    53     8    48   1
    54     8    49   1
    55     9    50   1
    56    10    51   1
    57    12    52   1
    58    12    53   1
    59    13    54   1
    60    14    55   1
    61    17    56   1
    62    18    57   1
    63    18    58   1
    64    19    59   1
    65    19    60   1
    66    20    61   1
    67    21    62   1
    68    21    63   1
    69    21    64   1
    70    22    65   1
    71    22    66   1
    72    22    67   1
    73    24    68   1
    74    24    69   1
    75    26    70   1
    76    29    71   1
    77    30    72   1
    78    30    73   1
    79    31    74   1
    80    32    75   1
    81    33    76   1
    82    34    77   1
    83    35    78   1
    84    37    79   1
    85    37    80   1
    86    37    81   1
@<TRIPOS>SUBSTRUCTURE
     1  DGX      1

