@<TRIPOS>MOLECULE
1igj_ligand_030
    81    86
SMALL
GAST_HUCK
****
This file was generated by PARSER (from files_GN.cpp)

@<TRIPOS>ATOM
      1 C1        -15.3889   28.9022   30.6416 C.3         1 DGX      -0.0448
      2 C2        -14.6174   27.5759   30.4018 C.3         1 DGX      -0.0260
      3 C3        -14.2885   26.8589   31.7380 C.3         1 DGX       0.0620
      4 O3        -15.4977   26.3778   32.3684 O.3         1 DGX      -0.3480
      5 C4        -13.5689   27.8250   32.7100 C.3         1 DGX      -0.0232
      6 C5        -14.3251   29.1793   32.9372 C.3         1 DGX      -0.0330
      7 C6        -13.5514   30.0775   33.9483 C.3         1 DGX      -0.0493
      8 C7        -12.2654   30.6894   33.3439 C.3         1 DGX      -0.0470
      9 C8        -12.5043   31.4408   31.9942 C.3         1 DGX      -0.0079
     10 C9        -13.3396   30.5695   30.9776 C.3         1 DGX      -0.0276
     11 C10       -14.6739   29.9415   31.5948 C.3         1 DGX      -0.0258
     12 C11       -13.5474   31.3820   29.6579 C.3         1 DGX      -0.0223
     13 C12       -12.2082   31.8544   29.0387 C.3         1 DGX       0.0664
     14 O12       -12.4589   32.5343   27.8051 O.3         1 DGX      -0.3909
     15 C13       -11.3169   32.7459   29.9982 C.3         1 DGX       0.0405
     16 C14       -11.1659   32.0379   31.4003 C.3         1 DGX       0.0799
     17 O14       -10.6639   32.9984   32.3506 O.3         1 DGX      -0.3874
     18 C15       -10.0132   31.0275   31.1645 C.3         1 DGX      -0.0200
     19 C16        -8.9967   31.8073   30.3165 C.3         1 DGX      -0.0318
     20 C17        -9.8311   32.7854   29.4319 C.3         1 DGX       0.0177
     21 C18       -11.9911   34.1617   30.1469 C.3         1 DGX      -0.0516
     22 C19       -15.7470   31.0588   31.8850 C.3         1 DGX      -0.0590
     23 C20        -9.2117   34.1057   29.2138 C.2         1 DGX      -0.0063
     24 C21        -8.4332   34.8858   30.1590 C.3         1 DGX       0.1204
     25 O21        -8.1907   36.0943   29.4393 O.3         1 DGX      -0.2665
     26 C22        -9.3621   34.8150   28.0880 C.2         1 DGX       0.0017
     27 C23        -8.7500   36.0131   28.2188 C.2         1 DGX       0.2187
     28 O23        -8.7071   36.9840   27.2790 O.2         1 DGX      -0.3870
     29 C1X       -15.9739   25.0299   32.1561 C.3         1 DGX       0.1624
     30 C2X       -17.4511   25.0945   31.6931 C.3         1 DGX       0.0270
     31 C3X       -18.0372   23.6738   31.4745 C.3         1 DGX       0.0881
     32 O3X       -18.2448   23.0324   32.7366 O.3         1 DGX      -0.3890
     33 C4X       -17.1063   22.8175   30.5729 C.3         1 DGX       0.1070
     34 O4X       -17.5670   21.4670   30.5146 O.3         1 DGX      -0.3867
     35 C5X       -15.6358   22.8625   31.0848 C.3         1 DGX       0.0871
     36 O5X       -15.2047   24.2349   31.2222 O.3         1 DGX      -0.3456
     37 C6X       -14.6553   22.1409   30.1325 C.3         1 DGX      -0.0361
     38 H1        -15.6095   29.3484   29.6707 H           1 DGX       0.0271
     39 H2        -16.3592   28.6256   31.0686 H           1 DGX       0.0271
     40 H3        -13.6951   27.7748   29.8518 H           1 DGX       0.0290
     41 H4        -15.2250   26.9141   29.7796 H           1 DGX       0.0290
     42 H5        -13.5867   26.0401   31.5412 H           1 DGX       0.0597
     43 H6        -12.5710   28.0116   32.3146 H           1 DGX       0.0293
     44 H7        -13.4421   27.3124   33.6683 H           1 DGX       0.0293
     45 H8        -15.2655   28.9091   33.4323 H           1 DGX       0.0307
     46 H9        -13.2824   29.4947   34.8351 H           1 DGX       0.0268
     47 H10       -14.1989   30.8872   34.2936 H           1 DGX       0.0268
     48 H11       -11.5321   29.8936   33.2060 H           1 DGX       0.0269
     49 H12       -11.8547   31.3810   34.0830 H           1 DGX       0.0269
     50 H13       -13.1200   32.3078   32.2469 H           1 DGX       0.0332
     51 H14       -12.6993   29.7304   30.7055 H           1 DGX       0.0310
     52 H15       -14.1881   32.2457   29.8365 H           1 DGX       0.0293
     53 H16       -14.0430   30.7601   28.9105 H           1 DGX       0.0293
     54 H17       -11.6609   30.9468   28.7678 H           1 DGX       0.0602
     55 H18       -12.9383   31.9008   27.2315 H           1 DGX       0.2098
     56 H19       -10.3923   32.4890   33.1429 H           1 DGX       0.2102
     57 H20       -10.3543   30.1457   30.6160 H           1 DGX       0.0295
     58 H21        -9.5531   30.6910   32.0979 H           1 DGX       0.0295
     59 H22        -8.3905   31.1239   29.7160 H           1 DGX       0.0301
     60 H23        -8.3243   32.3299   30.9980 H           1 DGX       0.0301
     61 H24        -9.8200   32.3142   28.4419 H           1 DGX       0.0550
     62 H25       -12.1039   34.6457   29.1761 H           1 DGX       0.0239
     63 H26       -11.3948   34.8252   30.7732 H           1 DGX       0.0239
     64 H27       -12.9780   34.0903   30.6013 H           1 DGX       0.0239
     65 H28       -16.6005   30.6486   32.4306 H           1 DGX       0.0235
     66 H29       -16.1314   31.4858   30.9570 H           1 DGX       0.0235
     67 H30       -15.3457   31.8753   32.4820 H           1 DGX       0.0235
     68 H31        -7.4784   34.4124   30.3942 H           1 DGX       0.0859
     69 H32        -8.9900   35.0925   31.0743 H           1 DGX       0.0859
     70 H33        -9.8708   34.5303   27.2864 H           1 DGX       0.0295
     71 H34       -15.9336   24.5492   33.1393 H           1 DGX       0.0910
     72 H35       -17.4993   25.6487   30.7550 H           1 DGX       0.0340
     73 H36       -18.0537   25.6324   32.4326 H           1 DGX       0.0340
     74 H37       -19.0129   23.7592   30.9891 H           1 DGX       0.0621
     75 H38       -18.8960   23.5974   33.2049 H           1 DGX       0.2099
     76 H39       -17.1334   23.2275   29.5612 H           1 DGX       0.0645
     77 H40       -18.4824   21.5103   30.1770 H           1 DGX       0.2100
     78 H41       -15.5706   22.3660   32.0601 H           1 DGX       0.0621
     79 H42       -13.6382   22.2011   30.5244 H           1 DGX       0.0255
     80 H43       -14.6711   22.6039   29.1457 H           1 DGX       0.0255
     81 H44       -14.9274   21.0854   30.0331 H           1 DGX       0.0255
@<TRIPOS>BOND
     1    11     1   1
     2     1     2   1
     3     2     3   1
     4     3     5   1
     5     3     4   1
     6     4    29   1
     7    29    36   1
     8    29    30   1
     9    30    31   1
    10    31    33   1
    11    31    32   1
    12    33    35   1
    13    33    34   1
    14    35    37   1
    15    36    35   1
    16     5     6   1
    17    11     6   1
    18     6     7   1
    19     7     8   1
    20     8     9   1
    21     9    16   1
    22     9    10   1
    23    10    12   1
    24    10    11   1
    25    11    22   1
    26    12    13   1
    27    13    15   1
    28    13    14   1
    29    15    21   1
    30    15    20   1
    31    15    16   1
    32    16    18   1
    33    16    17   1
    34    18    19   1
    35    20    19   1
    36    20    23   1
    37    23    26   2
    38    23    24   1
    39    24    25   1
    40    25    27   1
    41    27    28   2
    42    27    26   1
    43     1    38   1
    44     1    39   1
    45     2    40   1
    46     2    41   1
    47     3    42   1
    48     5    43   1
    49     5    44   1
    50     6    45   1
    51     7    46   1
    52     7    47   1
    53     8    48   1
    54     8    49   1
    55     9    50   1
    56    10    51   1
    57    12    52   1
    58    12    53   1
    59    13    54   1
    60    14    55   1
    61    17    56   1
    62    18    57   1
    63    18    58   1
    64    19    59   1
    65    19    60   1
    66    20    61   1
    67    21    62   1
    68    21    63   1
    69    21    64   1
    70    22    65   1
    71    22    66   1
    72    22    67   1
    73    24    68   1
    74    24    69   1
    75    26    70   1
    76    29    71   1
    77    30    72   1
    78    30    73   1
    79    31    74   1
    80    32    75   1
    81    33    76   1
    82    34    77   1
    83    35    78   1
    84    37    79   1
    85    37    80   1
    86    37    81   1
@<TRIPOS>SUBSTRUCTURE
     1  DGX      1

