@<TRIPOS>MOLECULE
1igj_ligand_056
    81    86
SMALL
GAST_HUCK
****
This file was generated by PARSER (from files_GN.cpp)

@<TRIPOS>ATOM
      1 C1        -12.9690   27.8229   30.4896 C.3         1 DGX      -0.0448
      2 C2        -13.9105   27.2859   31.5946 C.3         1 DGX      -0.0260
      3 C3        -15.3015   26.8640   31.0361 C.3         1 DGX       0.0620
      4 O3        -15.3682   25.7702   30.0861 O.3         1 DGX      -0.3480
      5 C4        -15.9291   28.1009   30.3361 C.3         1 DGX      -0.0232
      6 C5        -15.0323   28.6132   29.1572 C.3         1 DGX      -0.0330
      7 C6        -15.7413   29.7590   28.3714 C.3         1 DGX      -0.0493
      8 C7        -15.6554   31.1331   29.0786 C.3         1 DGX      -0.0470
      9 C8        -14.1890   31.5325   29.4407 C.3         1 DGX      -0.0079
     10 C9        -13.5218   30.4041   30.3158 C.3         1 DGX      -0.0276
     11 C10       -13.5423   28.9821   29.5803 C.3         1 DGX      -0.0258
     12 C11       -12.1189   30.8502   30.8503 C.3         1 DGX      -0.0223
     13 C12       -12.0552   32.2943   31.4146 C.3         1 DGX       0.0664
     14 O12       -10.7000   32.5922   31.7696 O.3         1 DGX      -0.3909
     15 C13       -12.6387   33.4184   30.4593 C.3         1 DGX       0.0405
     16 C14       -14.0847   32.9987   30.0046 C.3         1 DGX       0.0799
     17 O14       -14.5439   33.8612   28.9453 O.3         1 DGX      -0.3874
     18 C15       -14.9688   33.3063   31.2402 C.3         1 DGX      -0.0200
     19 C16       -14.3493   34.5731   31.8636 C.3         1 DGX      -0.0318
     20 C17       -12.8892   34.7375   31.3126 C.3         1 DGX       0.0177
     21 C18       -11.6557   33.5736   29.2419 C.3         1 DGX      -0.0516
     22 C19       -12.6300   28.9649   28.2899 C.3         1 DGX      -0.0590
     23 C20       -12.6845   36.1181   30.8178 C.2         1 DGX      -0.0063
     24 C21       -12.2860   36.6052   29.5062 C.3         1 DGX       0.1204
     25 O21       -12.3217   38.0219   29.6532 O.3         1 DGX      -0.2665
     26 C22       -12.8773   37.1876   31.6083 C.2         1 DGX       0.0017
     27 C23       -12.6785   38.3284   30.9174 C.2         1 DGX       0.2187
     28 O23       -12.7981   39.5837   31.3974 O.2         1 DGX      -0.3870
     29 C1X       -14.2832   24.8423   29.9101 C.3         1 DGX       0.1624
     30 C2X       -14.8566   23.4052   29.7983 C.3         1 DGX       0.0270
     31 C3X       -13.7473   22.4062   29.3607 C.3         1 DGX       0.0881
     32 O3X       -12.7900   22.2486   30.4109 O.3         1 DGX      -0.3890
     33 C4X       -13.0356   22.8894   28.0654 C.3         1 DGX       0.1070
     34 O4X       -11.9319   22.0230   27.7869 O.3         1 DGX      -0.3867
     35 C5X       -12.5676   24.3686   28.2237 C.3         1 DGX       0.0871
     36 O5X       -13.6634   25.1926   28.6580 O.3         1 DGX      -0.3456
     37 C6X       -12.0332   24.9775   26.9047 C.3         1 DGX      -0.0361
     38 H1        -12.0282   28.1151   30.9544 H           1 DGX       0.0271
     39 H2        -12.7032   26.9784   29.8632 H           1 DGX       0.0271
     40 H3        -14.0449   28.0639   32.3556 H           1 DGX       0.0290
     41 H4        -13.4327   26.4309   32.0793 H           1 DGX       0.0290
     42 H5        -15.9333   26.5878   31.8845 H           1 DGX       0.0597
     43 H6        -16.0911   28.8953   31.0689 H           1 DGX       0.0293
     44 H7        -16.9164   27.8189   29.9536 H           1 DGX       0.0293
     45 H8        -14.9883   27.7714   28.4545 H           1 DGX       0.0307
     46 H9        -16.7928   29.5076   28.2024 H           1 DGX       0.0268
     47 H10       -15.2835   29.8459   27.3842 H           1 DGX       0.0268
     48 H11       -16.2702   31.1069   29.9818 H           1 DGX       0.0269
     49 H12       -16.0921   31.8773   28.4063 H           1 DGX       0.0269
     50 H13       -13.6474   31.5756   28.4959 H           1 DGX       0.0332
     51 H14       -14.1431   30.3047   31.2097 H           1 DGX       0.0310
     52 H15       -11.3638   30.7464   30.0768 H           1 DGX       0.0293
     53 H16       -11.8241   30.1949   31.6713 H           1 DGX       0.0293
     54 H17       -12.6091   32.2862   32.3578 H           1 DGX       0.0602
     55 H18       -10.4796   32.0024   32.5202 H           1 DGX       0.2098
     56 H19       -14.5540   34.7741   29.3079 H           1 DGX       0.2102
     57 H20       -14.9442   32.4876   31.9634 H           1 DGX       0.0295
     58 H21       -16.0140   33.4752   30.9621 H           1 DGX       0.0295
     59 H22       -14.3431   34.4955   32.9551 H           1 DGX       0.0301
     60 H23       -14.9874   35.4235   31.6000 H           1 DGX       0.0301
     61 H24       -12.2080   34.6877   32.1741 H           1 DGX       0.0550
     62 H25       -10.7264   34.0440   29.5656 H           1 DGX       0.0239
     63 H26       -12.0859   34.1558   28.4325 H           1 DGX       0.0239
     64 H27       -11.3985   32.6093   28.8025 H           1 DGX       0.0239
     65 H28       -12.7248   28.0148   27.7561 H           1 DGX       0.0235
     66 H29       -11.5760   29.0784   28.5478 H           1 DGX       0.0235
     67 H30       -12.8791   29.7439   27.5756 H           1 DGX       0.0235
     68 H31       -12.9821   36.2916   28.7231 H           1 DGX       0.0859
     69 H32       -11.2606   36.3162   29.2635 H           1 DGX       0.0859
     70 H33       -13.1387   37.1588   32.5655 H           1 DGX       0.0295
     71 H34       -13.5688   24.8880   30.7405 H           1 DGX       0.0910
     72 H35       -15.6592   23.3960   29.0478 H           1 DGX       0.0340
     73 H36       -15.2814   23.0970   30.7573 H           1 DGX       0.0340
     74 H37       -14.2068   21.4304   29.1735 H           1 DGX       0.0621
     75 H38       -13.1470   21.5313   30.9848 H           1 DGX       0.2099
     76 H39       -13.7491   22.8236   27.2377 H           1 DGX       0.0645
     77 H40       -11.6843   22.2191   26.8604 H           1 DGX       0.2100
     78 H41       -11.7625   24.4231   28.9620 H           1 DGX       0.0621
     79 H42       -11.7623   26.0260   27.0588 H           1 DGX       0.0255
     80 H43       -12.7962   24.9307   26.1195 H           1 DGX       0.0255
     81 H44       -11.1427   24.4425   26.5627 H           1 DGX       0.0255
@<TRIPOS>BOND
     1    11     1   1
     2     1     2   1
     3     2     3   1
     4     3     5   1
     5     3     4   1
     6     4    29   1
     7    29    36   1
     8    29    30   1
     9    30    31   1
    10    31    33   1
    11    31    32   1
    12    33    35   1
    13    33    34   1
    14    35    37   1
    15    36    35   1
    16     5     6   1
    17    11     6   1
    18     6     7   1
    19     7     8   1
    20     8     9   1
    21     9    16   1
    22     9    10   1
    23    10    12   1
    24    10    11   1
    25    11    22   1
    26    12    13   1
    27    13    15   1
    28    13    14   1
    29    15    21   1
    30    15    20   1
    31    15    16   1
    32    16    18   1
    33    16    17   1
    34    18    19   1
    35    20    19   1
    36    20    23   1
    37    23    26   2
    38    23    24   1
    39    24    25   1
    40    25    27   1
    41    27    28   2
    42    27    26   1
    43     1    38   1
    44     1    39   1
    45     2    40   1
    46     2    41   1
    47     3    42   1
    48     5    43   1
    49     5    44   1
    50     6    45   1
    51     7    46   1
    52     7    47   1
    53     8    48   1
    54     8    49   1
    55     9    50   1
    56    10    51   1
    57    12    52   1
    58    12    53   1
    59    13    54   1
    60    14    55   1
    61    17    56   1
    62    18    57   1
    63    18    58   1
    64    19    59   1
    65    19    60   1
    66    20    61   1
    67    21    62   1
    68    21    63   1
    69    21    64   1
    70    22    65   1
    71    22    66   1
    72    22    67   1
    73    24    68   1
    74    24    69   1
    75    26    70   1
    76    29    71   1
    77    30    72   1
    78    30    73   1
    79    31    74   1
    80    32    75   1
    81    33    76   1
    82    34    77   1
    83    35    78   1
    84    37    79   1
    85    37    80   1
    86    37    81   1
@<TRIPOS>SUBSTRUCTURE
     1  DGX      1

