@<TRIPOS>MOLECULE
1igj_ligand_016
    81    86
SMALL
GAST_HUCK
****
This file was generated by PARSER (from files_GN.cpp)

@<TRIPOS>ATOM
      1 C1        -15.3498   24.5035   29.9332 C.3         1 DGX      -0.0448
      2 C2        -15.2701   25.4846   28.7341 C.3         1 DGX      -0.0260
      3 C3        -14.0771   26.4630   28.8593 C.3         1 DGX       0.0620
      4 O3        -12.8589   25.7011   28.7127 O.3         1 DGX      -0.3480
      5 C4        -14.1634   27.1974   30.2272 C.3         1 DGX      -0.0232
      6 C5        -14.2288   26.2175   31.4501 C.3         1 DGX      -0.0330
      7 C6        -14.2243   27.0136   32.7904 C.3         1 DGX      -0.0493
      8 C7        -15.5673   27.7328   33.0559 C.3         1 DGX      -0.0470
      9 C8        -16.7966   26.7718   32.9793 C.3         1 DGX      -0.0079
     10 C9        -16.8034   25.9248   31.6486 C.3         1 DGX      -0.0276
     11 C10       -15.4222   25.1762   31.3627 C.3         1 DGX      -0.0258
     12 C11       -18.0689   25.0091   31.6263 C.3         1 DGX      -0.0223
     13 C12       -19.3868   25.8004   31.8433 C.3         1 DGX       0.0664
     14 O12       -20.4947   24.8995   31.7471 O.3         1 DGX      -0.3909
     15 C13       -19.4364   26.6365   33.1876 C.3         1 DGX       0.0405
     16 C14       -18.1460   27.5321   33.2866 C.3         1 DGX       0.0799
     17 O14       -18.0218   28.0716   34.6104 O.3         1 DGX      -0.3874
     18 C15       -18.4625   28.7459   32.3657 C.3         1 DGX      -0.0200
     19 C16       -19.9973   28.9305   32.3711 C.3         1 DGX      -0.0318
     20 C17       -20.6111   27.6965   33.1010 C.3         1 DGX       0.0177
     21 C18       -19.5848   25.6455   34.4008 C.3         1 DGX      -0.0516
     22 C19       -15.1843   24.0029   32.3866 C.3         1 DGX      -0.0590
     23 C20       -21.3262   28.0453   34.3485 C.2         1 DGX      -0.0063
     24 C21       -22.6404   27.5286   34.6866 C.3         1 DGX       0.1204
     25 O21       -22.8948   28.1346   35.9514 O.3         1 DGX      -0.2665
     26 C22       -20.9112   28.8507   35.3289 C.2         1 DGX       0.0017
     27 C23       -21.8505   28.9082   36.2976 C.2         1 DGX       0.2187
     28 O23       -21.7706   29.6392   37.4323 O.2         1 DGX      -0.3870
     29 C1X       -11.6330   26.4130   28.4579 C.3         1 DGX       0.1624
     30 C2X       -10.5166   25.6677   29.2217 C.3         1 DGX       0.0270
     31 C3X        -9.1322   26.2929   28.9281 C.3         1 DGX       0.0881
     32 O3X        -9.0183   27.5538   29.5891 O.3         1 DGX      -0.3890
     33 C4X        -8.8937   26.4345   27.3989 C.3         1 DGX       0.1070
     34 O4X        -7.7263   27.2129   27.1561 O.3         1 DGX      -0.3867
     35 C5X       -10.1218   27.0830   26.6846 C.3         1 DGX       0.0871
     36 O5X       -11.3514   26.4067   27.0440 O.3         1 DGX      -0.3456
     37 C6X        -9.9973   27.0436   25.1436 C.3         1 DGX      -0.0361
     38 H1        -16.1962   23.8341   29.7745 H           1 DGX       0.0271
     39 H2        -14.4576   23.8713   29.8741 H           1 DGX       0.0271
     40 H3        -16.1943   26.0561   28.6604 H           1 DGX       0.0290
     41 H4        -15.1663   24.9096   27.8085 H           1 DGX       0.0290
     42 H5        -14.1533   27.1933   28.0462 H           1 DGX       0.0597
     43 H6        -15.0410   27.8434   30.2059 H           1 DGX       0.0293
     44 H7        -13.3016   27.8564   30.3425 H           1 DGX       0.0293
     45 H8        -13.2866   25.6600   31.4288 H           1 DGX       0.0307
     46 H9        -13.4196   27.7549   32.7849 H           1 DGX       0.0268
     47 H10       -14.0146   26.3389   33.6241 H           1 DGX       0.0268
     48 H11       -15.6819   28.5490   32.3405 H           1 DGX       0.0269
     49 H12       -15.5101   28.1845   34.0504 H           1 DGX       0.0269
     50 H13       -16.6702   26.0633   33.8004 H           1 DGX       0.0332
     51 H14       -16.9471   26.6323   30.8331 H           1 DGX       0.0310
     52 H15       -17.9935   24.2280   32.3820 H           1 DGX       0.0293
     53 H16       -18.1484   24.5149   30.6579 H           1 DGX       0.0293
     54 H17       -19.4871   26.4782   30.9902 H           1 DGX       0.0602
     55 H18       -20.4500   24.5230   30.8431 H           1 DGX       0.2098
     56 H19       -17.7952   27.3192   35.1960 H           1 DGX       0.2102
     57 H20       -18.1300   28.5617   31.3420 H           1 DGX       0.0295
     58 H21       -17.9653   29.6560   32.7113 H           1 DGX       0.0295
     59 H22       -20.3637   28.9830   31.3397 H           1 DGX       0.0301
     60 H23       -20.2618   29.8793   32.8505 H           1 DGX       0.0301
     61 H24       -21.3820   27.2930   32.4381 H           1 DGX       0.0550
     62 H25       -20.5071   25.0685   34.3164 H           1 DGX       0.0239
     63 H26       -19.6181   26.1761   35.3528 H           1 DGX       0.0239
     64 H27       -18.7525   24.9477   34.4523 H           1 DGX       0.0239
     65 H28       -14.1946   23.5616   32.2550 H           1 DGX       0.0235
     66 H29       -15.9098   23.2004   32.2450 H           1 DGX       0.0235
     67 H30       -15.2539   24.3319   33.4215 H           1 DGX       0.0235
     68 H31       -22.6319   26.4425   34.7823 H           1 DGX       0.0859
     69 H32       -23.3928   27.8383   33.9594 H           1 DGX       0.0859
     70 H33       -20.0653   29.3636   35.3469 H           1 DGX       0.0295
     71 H34       -11.6771   27.4463   28.8151 H           1 DGX       0.0910
     72 H35       -10.5075   24.6136   28.9264 H           1 DGX       0.0340
     73 H36       -10.7276   25.7186   30.2903 H           1 DGX       0.0340
     74 H37        -8.3654   25.6375   29.3500 H           1 DGX       0.0621
     75 H38        -8.0543   27.7381   29.5925 H           1 DGX       0.2099
     76 H39        -8.7261   25.4339   26.9889 H           1 DGX       0.0645
     77 H40        -7.0480   26.8673   27.7786 H           1 DGX       0.2100
     78 H41       -10.1938   28.1357   26.9779 H           1 DGX       0.0621
     79 H42       -10.8871   27.4754   24.6833 H           1 DGX       0.0255
     80 H43        -9.8908   26.0141   24.7933 H           1 DGX       0.0255
     81 H44        -9.1313   27.6214   24.8206 H           1 DGX       0.0255
@<TRIPOS>BOND
     1    11     1   1
     2     1     2   1
     3     2     3   1
     4     3     5   1
     5     3     4   1
     6     4    29   1
     7    29    36   1
     8    29    30   1
     9    30    31   1
    10    31    33   1
    11    31    32   1
    12    33    35   1
    13    33    34   1
    14    35    37   1
    15    36    35   1
    16     5     6   1
    17    11     6   1
    18     6     7   1
    19     7     8   1
    20     8     9   1
    21     9    16   1
    22     9    10   1
    23    10    12   1
    24    10    11   1
    25    11    22   1
    26    12    13   1
    27    13    15   1
    28    13    14   1
    29    15    21   1
    30    15    20   1
    31    15    16   1
    32    16    18   1
    33    16    17   1
    34    18    19   1
    35    20    19   1
    36    20    23   1
    37    23    26   2
    38    23    24   1
    39    24    25   1
    40    25    27   1
    41    27    28   2
    42    27    26   1
    43     1    38   1
    44     1    39   1
    45     2    40   1
    46     2    41   1
    47     3    42   1
    48     5    43   1
    49     5    44   1
    50     6    45   1
    51     7    46   1
    52     7    47   1
    53     8    48   1
    54     8    49   1
    55     9    50   1
    56    10    51   1
    57    12    52   1
    58    12    53   1
    59    13    54   1
    60    14    55   1
    61    17    56   1
    62    18    57   1
    63    18    58   1
    64    19    59   1
    65    19    60   1
    66    20    61   1
    67    21    62   1
    68    21    63   1
    69    21    64   1
    70    22    65   1
    71    22    66   1
    72    22    67   1
    73    24    68   1
    74    24    69   1
    75    26    70   1
    76    29    71   1
    77    30    72   1
    78    30    73   1
    79    31    74   1
    80    32    75   1
    81    33    76   1
    82    34    77   1
    83    35    78   1
    84    37    79   1
    85    37    80   1
    86    37    81   1
@<TRIPOS>SUBSTRUCTURE
     1  DGX      1

