@<TRIPOS>MOLECULE
1igj_ligand_009
    81    86
SMALL
GAST_HUCK
****
This file was generated by PARSER (from files_GN.cpp)

@<TRIPOS>ATOM
      1 C1        -14.6861   25.8619   27.8507 C.3         1 DGX      -0.0448
      2 C2        -14.3072   26.0959   26.3566 C.3         1 DGX      -0.0260
      3 C3        -12.8638   25.6102   26.0632 C.3         1 DGX       0.0620
      4 O3        -12.8967   24.1595   26.2198 O.3         1 DGX      -0.3480
      5 C4        -11.9267   26.4498   26.9903 C.3         1 DGX      -0.0232
      6 C5        -12.2280   26.1703   28.5078 C.3         1 DGX      -0.0330
      7 C6        -11.1463   26.8388   29.4131 C.3         1 DGX      -0.0493
      8 C7        -11.3252   28.3737   29.5254 C.3         1 DGX      -0.0470
      9 C8        -12.7719   28.8018   29.9322 C.3         1 DGX      -0.0079
     10 C9        -13.8694   28.1018   29.0373 C.3         1 DGX      -0.0276
     11 C10       -13.7126   26.5154   28.9241 C.3         1 DGX      -0.0258
     12 C11       -15.2814   28.5863   29.5059 C.3         1 DGX      -0.0223
     13 C12       -15.4211   30.1335   29.4964 C.3         1 DGX       0.0664
     14 O12       -16.7606   30.4749   29.8760 O.3         1 DGX      -0.3909
     15 C13       -14.3570   30.8857   30.3946 C.3         1 DGX       0.0405
     16 C14       -12.9097   30.3744   30.0340 C.3         1 DGX       0.0799
     17 O14       -12.0042   30.7950   31.0685 O.3         1 DGX      -0.3874
     18 C15       -12.5343   31.1711   28.7472 C.3         1 DGX      -0.0200
     19 C16       -13.3769   32.4670   28.7405 C.3         1 DGX      -0.0318
     20 C17       -14.3229   32.4131   29.9748 C.3         1 DGX       0.0177
     21 C18       -14.7107   30.6786   31.9129 C.3         1 DGX      -0.0516
     22 C19       -14.0469   25.8069   30.2942 C.3         1 DGX      -0.0590
     23 C20       -13.9968   33.4263   30.9969 C.2         1 DGX      -0.0063
     24 C21       -14.9788   34.3319   31.5701 C.3         1 DGX       0.1204
     25 O21       -14.1933   35.1347   32.4487 O.3         1 DGX      -0.2665
     26 C22       -12.7933   33.7304   31.4941 C.2         1 DGX       0.0017
     27 C23       -12.9037   34.7450   32.3754 C.2         1 DGX       0.2187
     28 O23       -11.8868   35.3105   33.0581 O.2         1 DGX      -0.3870
     29 C1X       -11.7589   23.2999   26.4748 C.3         1 DGX       0.1624
     30 C2X       -11.1106   22.6346   25.2259 C.3         1 DGX       0.0270
     31 C3X        -9.8529   21.8089   25.6315 C.3         1 DGX       0.0881
     32 O3X       -10.2282   20.6505   26.3820 O.3         1 DGX      -0.3890
     33 C4X        -8.8776   22.6652   26.4852 C.3         1 DGX       0.1070
     34 O4X        -7.7557   21.8892   26.9041 O.3         1 DGX      -0.3867
     35 C5X        -9.6346   23.2748   27.7000 C.3         1 DGX       0.0871
     36 O5X       -10.7656   24.0056   27.2297 O.3         1 DGX      -0.3456
     37 C6X        -8.8371   24.3047   28.5374 C.3         1 DGX      -0.0361
     38 H1        -15.7086   26.2046   27.9989 H           1 DGX       0.0271
     39 H2        -14.7213   24.7764   28.0006 H           1 DGX       0.0271
     40 H3        -14.4025   27.1571   26.1173 H           1 DGX       0.0290
     41 H4        -15.0041   25.5485   25.7146 H           1 DGX       0.0290
     42 H5        -12.6124   25.8353   25.0219 H           1 DGX       0.0597
     43 H6        -12.0691   27.5167   26.7749 H           1 DGX       0.0293
     44 H7        -10.8819   26.2491   26.7322 H           1 DGX       0.0293
     45 H8        -12.0896   25.0966   28.6585 H           1 DGX       0.0307
     46 H9        -10.1490   26.6237   29.0223 H           1 DGX       0.0268
     47 H10       -11.2129   26.4040   30.4215 H           1 DGX       0.0268
     48 H11       -11.0401   28.8315   28.5753 H           1 DGX       0.0269
     49 H12       -10.6146   28.7137   30.2813 H           1 DGX       0.0269
     50 H13       -12.9125   28.4326   30.9516 H           1 DGX       0.0332
     51 H14       -13.7491   28.4979   28.0269 H           1 DGX       0.0310
     52 H15       -15.4987   28.2103   30.5079 H           1 DGX       0.0293
     53 H16       -16.0535   28.2044   28.8341 H           1 DGX       0.0293
     54 H17       -15.3160   30.4510   28.4523 H           1 DGX       0.0602
     55 H18       -17.3413   29.9703   29.2665 H           1 DGX       0.2098
     56 H19       -11.0990   30.7424   30.6881 H           1 DGX       0.2102
     57 H20       -12.7583   30.5957   27.8459 H           1 DGX       0.0295
     58 H21       -11.4675   31.4143   28.7228 H           1 DGX       0.0295
     59 H22       -13.9728   32.5096   27.8246 H           1 DGX       0.0301
     60 H23       -12.7291   33.3489   28.7440 H           1 DGX       0.0301
     61 H24       -15.3271   32.6805   29.6257 H           1 DGX       0.0550
     62 H25       -15.7026   31.0775   32.1315 H           1 DGX       0.0239
     63 H26       -14.0025   31.1865   32.5682 H           1 DGX       0.0239
     64 H27       -14.7001   29.6225   32.1833 H           1 DGX       0.0239
     65 H28       -13.7826   24.7458   30.2595 H           1 DGX       0.0235
     66 H29       -15.1131   25.8667   30.5230 H           1 DGX       0.0235
     67 H30       -13.4977   26.2488   31.1244 H           1 DGX       0.0235
     68 H31       -15.7463   33.7891   32.1275 H           1 DGX       0.0859
     69 H32       -15.4395   34.9550   30.7982 H           1 DGX       0.0859
     70 H33       -11.9299   33.3271   31.2232 H           1 DGX       0.0295
     71 H34       -12.1654   22.5012   27.1095 H           1 DGX       0.0910
     72 H35       -10.8266   23.4048   24.5045 H           1 DGX       0.0340
     73 H36       -11.8381   21.9749   24.7535 H           1 DGX       0.0340
     74 H37        -9.3432   21.4714   24.7267 H           1 DGX       0.0621
     75 H38       -11.0855   20.3394   26.0098 H           1 DGX       0.2099
     76 H39        -8.4983   23.4763   25.8553 H           1 DGX       0.0645
     77 H40        -8.1063   21.0044   27.1315 H           1 DGX       0.2100
     78 H41        -9.9837   22.4829   28.3652 H           1 DGX       0.0621
     79 H42        -9.4956   24.7734   29.2676 H           1 DGX       0.0255
     80 H43        -8.4280   25.0878   27.8834 H           1 DGX       0.0255
     81 H44        -8.0141   23.7990   29.0584 H           1 DGX       0.0255
@<TRIPOS>BOND
     1    11     1   1
     2     1     2   1
     3     2     3   1
     4     3     5   1
     5     3     4   1
     6     4    29   1
     7    29    36   1
     8    29    30   1
     9    30    31   1
    10    31    33   1
    11    31    32   1
    12    33    35   1
    13    33    34   1
    14    35    37   1
    15    36    35   1
    16     5     6   1
    17    11     6   1
    18     6     7   1
    19     7     8   1
    20     8     9   1
    21     9    16   1
    22     9    10   1
    23    10    12   1
    24    10    11   1
    25    11    22   1
    26    12    13   1
    27    13    15   1
    28    13    14   1
    29    15    21   1
    30    15    20   1
    31    15    16   1
    32    16    18   1
    33    16    17   1
    34    18    19   1
    35    20    19   1
    36    20    23   1
    37    23    26   2
    38    23    24   1
    39    24    25   1
    40    25    27   1
    41    27    28   2
    42    27    26   1
    43     1    38   1
    44     1    39   1
    45     2    40   1
    46     2    41   1
    47     3    42   1
    48     5    43   1
    49     5    44   1
    50     6    45   1
    51     7    46   1
    52     7    47   1
    53     8    48   1
    54     8    49   1
    55     9    50   1
    56    10    51   1
    57    12    52   1
    58    12    53   1
    59    13    54   1
    60    14    55   1
    61    17    56   1
    62    18    57   1
    63    18    58   1
    64    19    59   1
    65    19    60   1
    66    20    61   1
    67    21    62   1
    68    21    63   1
    69    21    64   1
    70    22    65   1
    71    22    66   1
    72    22    67   1
    73    24    68   1
    74    24    69   1
    75    26    70   1
    76    29    71   1
    77    30    72   1
    78    30    73   1
    79    31    74   1
    80    32    75   1
    81    33    76   1
    82    34    77   1
    83    35    78   1
    84    37    79   1
    85    37    80   1
    86    37    81   1
@<TRIPOS>SUBSTRUCTURE
     1  DGX      1

