@<TRIPOS>MOLECULE
1igj_ligand_051
    81    86
SMALL
GAST_HUCK
****
This file was generated by PARSER (from files_GN.cpp)

@<TRIPOS>ATOM
      1 C1        -11.1366   30.5447   26.9259 C.3         1 DGX      -0.0448
      2 C2        -11.7278   31.4119   28.0677 C.3         1 DGX      -0.0260
      3 C3        -10.6645   31.6984   29.1571 C.3         1 DGX       0.0620
      4 O3         -9.6400   32.5708   28.6233 O.3         1 DGX      -0.3480
      5 C4        -10.0060   30.3846   29.6519 C.3         1 DGX      -0.0232
      6 C5         -9.4653   29.4655   28.5018 C.3         1 DGX      -0.0330
      7 C6         -8.8380   28.1649   29.0860 C.3         1 DGX      -0.0493
      8 C7         -9.8980   27.1585   29.5928 C.3         1 DGX      -0.0470
      9 C8        -11.0104   26.8348   28.5420 C.3         1 DGX      -0.0079
     10 C9        -11.6320   28.1422   27.9322 C.3         1 DGX      -0.0276
     11 C10       -10.5343   29.1584   27.3722 C.3         1 DGX      -0.0258
     12 C11       -12.7654   27.7578   26.9274 C.3         1 DGX      -0.0223
     13 C12       -13.8243   26.7805   27.5130 C.3         1 DGX       0.0664
     14 O12       -14.8190   26.5406   26.5141 O.3         1 DGX      -0.3909
     15 C13       -13.2356   25.4368   28.1174 C.3         1 DGX       0.0405
     16 C14       -12.0703   25.8155   29.1076 C.3         1 DGX       0.0799
     17 O14       -11.3112   24.6493   29.4482 O.3         1 DGX      -0.3874
     18 C15       -12.8249   26.2590   30.3929 C.3         1 DGX      -0.0200
     19 C16       -14.0848   25.3716   30.4755 C.3         1 DGX      -0.0318
     20 C17       -14.3193   24.7547   29.0598 C.3         1 DGX       0.0177
     21 C18       -12.7837   24.5083   26.9339 C.3         1 DGX      -0.0516
     22 C19        -9.8081   28.5823   26.0968 C.3         1 DGX      -0.0590
     23 C20       -14.4726   23.2843   29.1519 C.2         1 DGX      -0.0063
     24 C21       -15.7812   22.6479   29.2159 C.3         1 DGX       0.1204
     25 O21       -15.4716   21.2818   29.4784 O.3         1 DGX      -0.2665
     26 C22       -13.5470   22.3410   29.3787 C.2         1 DGX       0.0017
     27 C23       -14.1347   21.1365   29.5645 C.2         1 DGX       0.2187
     28 O23       -13.4891   19.9713   29.8000 O.2         1 DGX      -0.3870
     29 C1X        -9.9057   33.9866   28.5867 C.3         1 DGX       0.1624
     30 C2X        -9.1287   34.6932   29.7312 C.3         1 DGX       0.0270
     31 C3X        -9.2177   36.2366   29.5969 C.3         1 DGX       0.0881
     32 O3X       -10.5394   36.6799   29.9098 O.3         1 DGX      -0.3890
     33 C4X        -8.8168   36.6899   28.1659 C.3         1 DGX       0.1070
     34 O4X        -9.0209   38.0960   28.0187 O.3         1 DGX      -0.3867
     35 C5X        -9.6032   35.8849   27.0862 C.3         1 DGX       0.0871
     36 O5X        -9.4434   34.4639   27.3050 O.3         1 DGX      -0.3456
     37 C6X        -9.1232   36.2042   25.6500 C.3         1 DGX      -0.0361
     38 H1        -11.9039   30.3981   26.1734 H           1 DGX       0.0271
     39 H2        -10.3578   31.1425   26.4418 H           1 DGX       0.0271
     40 H3        -12.5918   30.9141   28.5111 H           1 DGX       0.0290
     41 H4        -12.0821   32.3573   27.6502 H           1 DGX       0.0290
     42 H5        -11.1628   32.1590   30.0193 H           1 DGX       0.0597
     43 H6        -10.7435   29.8494   30.2514 H           1 DGX       0.0293
     44 H7         -9.1829   30.6498   30.3219 H           1 DGX       0.0293
     45 H8         -8.6372   30.0238   28.0480 H           1 DGX       0.0307
     46 H9         -8.1643   28.4129   29.9116 H           1 DGX       0.0268
     47 H10        -8.2251   27.6772   28.3243 H           1 DGX       0.0268
     48 H11       -10.3484   27.5511   30.5061 H           1 DGX       0.0269
     49 H12        -9.3735   26.2385   29.8603 H           1 DGX       0.0269
     50 H13       -10.5140   26.3036   27.7273 H           1 DGX       0.0332
     51 H14       -12.1370   28.6483   28.7548 H           1 DGX       0.0310
     52 H15       -12.3347   27.3209   26.0276 H           1 DGX       0.0293
     53 H16       -13.3004   28.6588   26.6328 H           1 DGX       0.0293
     54 H17       -14.3517   27.3313   28.2968 H           1 DGX       0.0602
     55 H18       -14.3399   26.1880   25.7362 H           1 DGX       0.2098
     56 H19       -11.9195   24.0807   29.9574 H           1 DGX       0.2102
     57 H20       -13.1244   27.3057   30.3398 H           1 DGX       0.0295
     58 H21       -12.2085   26.1403   31.2842 H           1 DGX       0.0295
     59 H22       -14.9476   25.9760   30.7756 H           1 DGX       0.0301
     60 H23       -13.9357   24.6090   31.2487 H           1 DGX       0.0301
     61 H24       -15.3028   25.1079   28.7206 H           1 DGX       0.0550
     62 H25       -13.6556   24.1566   26.3749 H           1 DGX       0.0239
     63 H26       -12.2385   23.6344   27.2873 H           1 DGX       0.0239
     64 H27       -12.1229   25.0335   26.2430 H           1 DGX       0.0239
     65 H28        -8.9857   29.2305   25.7883 H           1 DGX       0.0235
     66 H29       -10.4938   28.5092   25.2521 H           1 DGX       0.0235
     67 H30        -9.3875   27.5938   26.2640 H           1 DGX       0.0235
     68 H31       -16.3194   22.7385   28.2674 H           1 DGX       0.0859
     69 H32       -16.3816   23.0484   30.0386 H           1 DGX       0.0859
     70 H33       -12.5707   22.4692   29.4193 H           1 DGX       0.0295
     71 H34       -10.9813   34.1874   28.6684 H           1 DGX       0.0910
     72 H35        -8.0780   34.3910   29.6881 H           1 DGX       0.0340
     73 H36        -9.5277   34.3854   30.7019 H           1 DGX       0.0340
     74 H37        -8.5351   36.6956   30.3184 H           1 DGX       0.0621
     75 H38       -10.6511   36.5050   30.8685 H           1 DGX       0.2099
     76 H39        -7.7477   36.5016   28.0339 H           1 DGX       0.0645
     77 H40        -9.9865   38.2337   28.1205 H           1 DGX       0.2100
     78 H41       -10.6665   36.1441   27.1433 H           1 DGX       0.0621
     79 H42        -9.6947   35.6168   24.9289 H           1 DGX       0.0255
     80 H43        -8.0649   35.9606   25.5377 H           1 DGX       0.0255
     81 H44        -9.2689   37.2621   25.4251 H           1 DGX       0.0255
@<TRIPOS>BOND
     1    11     1   1
     2     1     2   1
     3     2     3   1
     4     3     5   1
     5     3     4   1
     6     4    29   1
     7    29    36   1
     8    29    30   1
     9    30    31   1
    10    31    33   1
    11    31    32   1
    12    33    35   1
    13    33    34   1
    14    35    37   1
    15    36    35   1
    16     5     6   1
    17    11     6   1
    18     6     7   1
    19     7     8   1
    20     8     9   1
    21     9    16   1
    22     9    10   1
    23    10    12   1
    24    10    11   1
    25    11    22   1
    26    12    13   1
    27    13    15   1
    28    13    14   1
    29    15    21   1
    30    15    20   1
    31    15    16   1
    32    16    18   1
    33    16    17   1
    34    18    19   1
    35    20    19   1
    36    20    23   1
    37    23    26   2
    38    23    24   1
    39    24    25   1
    40    25    27   1
    41    27    28   2
    42    27    26   1
    43     1    38   1
    44     1    39   1
    45     2    40   1
    46     2    41   1
    47     3    42   1
    48     5    43   1
    49     5    44   1
    50     6    45   1
    51     7    46   1
    52     7    47   1
    53     8    48   1
    54     8    49   1
    55     9    50   1
    56    10    51   1
    57    12    52   1
    58    12    53   1
    59    13    54   1
    60    14    55   1
    61    17    56   1
    62    18    57   1
    63    18    58   1
    64    19    59   1
    65    19    60   1
    66    20    61   1
    67    21    62   1
    68    21    63   1
    69    21    64   1
    70    22    65   1
    71    22    66   1
    72    22    67   1
    73    24    68   1
    74    24    69   1
    75    26    70   1
    76    29    71   1
    77    30    72   1
    78    30    73   1
    79    31    74   1
    80    32    75   1
    81    33    76   1
    82    34    77   1
    83    35    78   1
    84    37    79   1
    85    37    80   1
    86    37    81   1
@<TRIPOS>SUBSTRUCTURE
     1  DGX      1

