@<TRIPOS>MOLECULE
1igj_ligand_003
    81    86
SMALL
GAST_HUCK
****
This file was generated by PARSER (from files_GN.cpp)

@<TRIPOS>ATOM
      1 C1        -12.7043   28.9657   30.6615 C.3         1 DGX      -0.0448
      2 C2        -12.1949   30.1983   29.8696 C.3         1 DGX      -0.0260
      3 C3        -13.3108   30.8284   28.9967 C.3         1 DGX       0.0620
      4 O3        -14.3021   31.4505   29.8499 O.3         1 DGX      -0.3480
      5 C4        -13.9680   29.7456   28.0991 C.3         1 DGX      -0.0232
      6 C5        -14.4588   28.4832   28.8869 C.3         1 DGX      -0.0330
      7 C6        -15.1265   27.4657   27.9156 C.3         1 DGX      -0.0493
      8 C7        -14.1079   26.7286   27.0152 C.3         1 DGX      -0.0470
      9 C8        -12.9390   26.0707   27.8145 C.3         1 DGX      -0.0079
     10 C9        -12.2815   27.0703   28.8438 C.3         1 DGX      -0.0276
     11 C10       -13.3371   27.8150   29.7839 C.3         1 DGX      -0.0258
     12 C11       -11.1092   26.3541   29.5916 C.3         1 DGX      -0.0223
     13 C12       -10.0718   25.7418   28.6109 C.3         1 DGX       0.0664
     14 O12        -8.9925   25.1527   29.3464 O.3         1 DGX      -0.3909
     15 C13       -10.6756   24.7097   27.5730 C.3         1 DGX       0.0405
     16 C14       -11.9104   25.3581   26.8448 C.3         1 DGX       0.0799
     17 O14       -12.6406   24.3654   26.1015 O.3         1 DGX      -0.3874
     18 C15       -11.2643   26.2679   25.7649 C.3         1 DGX      -0.0200
     19 C16        -9.9140   25.6236   25.3846 C.3         1 DGX      -0.0318
     20 C17        -9.6189   24.4921   26.4132 C.3         1 DGX       0.0177
     21 C18       -11.0554   23.3794   28.3177 C.3         1 DGX      -0.0516
     22 C19       -13.9968   26.8176   30.8080 C.3         1 DGX      -0.0590
     23 C20        -9.4903   23.1316   25.8433 C.2         1 DGX      -0.0063
     24 C21       -10.2737   22.5247   24.7785 C.3         1 DGX       0.1204
     25 O21        -9.7014   21.2205   24.6794 O.3         1 DGX      -0.2665
     26 C22        -8.6088   22.2289   26.2905 C.2         1 DGX       0.0017
     27 C23        -8.7179   21.0849   25.5848 C.2         1 DGX       0.2187
     28 O23        -7.9305   19.9934   25.7250 O.2         1 DGX      -0.3870
     29 C1X       -14.9465   32.6696   29.4181 C.3         1 DGX       0.1624
     30 C2X       -14.0973   33.9071   29.8142 C.3         1 DGX       0.0270
     31 C3X       -14.7434   35.2198   29.2978 C.3         1 DGX       0.0881
     32 O3X       -15.9266   35.5222   30.0425 O.3         1 DGX      -0.3890
     33 C4X       -15.0707   35.1126   27.7833 C.3         1 DGX       0.1070
     34 O4X       -15.7663   36.2810   27.3442 O.3         1 DGX      -0.3867
     35 C5X       -15.9103   33.8338   27.4883 C.3         1 DGX       0.0871
     36 O5X       -15.2401   32.6636   28.0006 O.3         1 DGX      -0.3456
     37 C6X       -16.1256   33.6224   25.9715 C.3         1 DGX      -0.0361
     38 H1        -11.8857   28.5826   31.2729 H           1 DGX       0.0271
     39 H2        -13.4555   29.3377   31.3665 H           1 DGX       0.0271
     40 H3        -11.3481   29.9097   29.2421 H           1 DGX       0.0290
     41 H4        -11.8302   30.9511   30.5742 H           1 DGX       0.0290
     42 H5        -12.8361   31.5777   28.3536 H           1 DGX       0.0597
     43 H6        -13.2480   29.4640   27.3305 H           1 DGX       0.0293
     44 H7        -14.8221   30.1843   27.5833 H           1 DGX       0.0293
     45 H8        -15.2602   28.8406   29.5452 H           1 DGX       0.0307
     46 H9        -15.8390   27.9916   27.2754 H           1 DGX       0.0268
     47 H10       -15.7005   26.7286   28.4834 H           1 DGX       0.0268
     48 H11       -13.7146   27.4351   26.2838 H           1 DGX       0.0269
     49 H12       -14.6469   25.9595   26.4564 H           1 DGX       0.0269
     50 H13       -13.3906   25.2675   28.4004 H           1 DGX       0.0332
     51 H14       -11.8052   27.8478   28.2495 H           1 DGX       0.0310
     52 H15       -11.4965   25.5730   30.2443 H           1 DGX       0.0293
     53 H16       -10.5744   27.0677   30.2222 H           1 DGX       0.0293
     54 H17        -9.6341   26.5841   28.0653 H           1 DGX       0.0602
     55 H18        -8.2787   25.8298   29.3818 H           1 DGX       0.2098
     56 H19       -13.1222   23.8259   26.7637 H           1 DGX       0.2102
     57 H20       -11.0838   27.2717   26.1545 H           1 DGX       0.0295
     58 H21       -11.9121   26.3703   24.8887 H           1 DGX       0.0295
     59 H22        -9.1344   26.3905   25.4285 H           1 DGX       0.0301
     60 H23        -9.9454   25.2590   24.3608 H           1 DGX       0.0301
     61 H24        -8.6188   24.7173   26.8068 H           1 DGX       0.0550
     62 H25       -10.1593   22.9176   28.7271 H           1 DGX       0.0239
     63 H26       -11.5132   22.6544   27.6453 H           1 DGX       0.0239
     64 H27       -11.7543   23.5528   29.1353 H           1 DGX       0.0239
     65 H28       -14.8068   27.3024   31.3586 H           1 DGX       0.0235
     66 H29       -13.2686   26.4704   31.5434 H           1 DGX       0.0235
     67 H30       -14.4185   25.9406   30.3219 H           1 DGX       0.0235
     68 H31       -10.1469   23.0368   23.8257 H           1 DGX       0.0859
     69 H32       -11.3300   22.4451   25.0309 H           1 DGX       0.0859
     70 H33        -7.9706   22.3604   27.0389 H           1 DGX       0.0295
     71 H34       -15.8925   32.7074   29.9650 H           1 DGX       0.0910
     72 H35       -13.0949   33.8084   29.3885 H           1 DGX       0.0340
     73 H36       -13.9945   33.9466   30.9018 H           1 DGX       0.0340
     74 H37       -14.0414   36.0431   29.4543 H           1 DGX       0.0621
     75 H38       -15.6226   35.6767   30.9627 H           1 DGX       0.2099
     76 H39       -14.1264   35.0577   27.2308 H           1 DGX       0.0645
     77 H40       -15.1299   37.0196   27.4576 H           1 DGX       0.2100
     78 H41       -16.8951   33.9220   27.9607 H           1 DGX       0.0621
     79 H42       -16.6935   32.7060   25.8013 H           1 DGX       0.0255
     80 H43       -15.1678   33.5361   25.4535 H           1 DGX       0.0255
     81 H44       -16.6820   34.4594   25.5433 H           1 DGX       0.0255
@<TRIPOS>BOND
     1    11     1   1
     2     1     2   1
     3     2     3   1
     4     3     5   1
     5     3     4   1
     6     4    29   1
     7    29    36   1
     8    29    30   1
     9    30    31   1
    10    31    33   1
    11    31    32   1
    12    33    35   1
    13    33    34   1
    14    35    37   1
    15    36    35   1
    16     5     6   1
    17    11     6   1
    18     6     7   1
    19     7     8   1
    20     8     9   1
    21     9    16   1
    22     9    10   1
    23    10    12   1
    24    10    11   1
    25    11    22   1
    26    12    13   1
    27    13    15   1
    28    13    14   1
    29    15    21   1
    30    15    20   1
    31    15    16   1
    32    16    18   1
    33    16    17   1
    34    18    19   1
    35    20    19   1
    36    20    23   1
    37    23    26   2
    38    23    24   1
    39    24    25   1
    40    25    27   1
    41    27    28   2
    42    27    26   1
    43     1    38   1
    44     1    39   1
    45     2    40   1
    46     2    41   1
    47     3    42   1
    48     5    43   1
    49     5    44   1
    50     6    45   1
    51     7    46   1
    52     7    47   1
    53     8    48   1
    54     8    49   1
    55     9    50   1
    56    10    51   1
    57    12    52   1
    58    12    53   1
    59    13    54   1
    60    14    55   1
    61    17    56   1
    62    18    57   1
    63    18    58   1
    64    19    59   1
    65    19    60   1
    66    20    61   1
    67    21    62   1
    68    21    63   1
    69    21    64   1
    70    22    65   1
    71    22    66   1
    72    22    67   1
    73    24    68   1
    74    24    69   1
    75    26    70   1
    76    29    71   1
    77    30    72   1
    78    30    73   1
    79    31    74   1
    80    32    75   1
    81    33    76   1
    82    34    77   1
    83    35    78   1
    84    37    79   1
    85    37    80   1
    86    37    81   1
@<TRIPOS>SUBSTRUCTURE
     1  DGX      1

