@<TRIPOS>MOLECULE
1igj_ligand_054
    81    86
SMALL
GAST_HUCK
****
This file was generated by PARSER (from files_GN.cpp)

@<TRIPOS>ATOM
      1 C1        -15.2717   27.0383   29.1600 C.3         1 DGX      -0.0448
      2 C2        -15.3590   26.2477   30.4906 C.3         1 DGX      -0.0260
      3 C3        -14.7660   27.0623   31.6751 C.3         1 DGX       0.0620
      4 O3        -15.5624   28.2081   32.0736 O.3         1 DGX      -0.3480
      5 C4        -13.3238   27.5281   31.3303 C.3         1 DGX      -0.0232
      6 C5        -13.1847   28.2605   29.9490 C.3         1 DGX      -0.0330
      7 C6        -11.6982   28.6544   29.6717 C.3         1 DGX      -0.0493
      8 C7        -10.8019   27.4574   29.2573 C.3         1 DGX      -0.0470
      9 C8        -11.3886   26.6131   28.0798 C.3         1 DGX      -0.0079
     10 C9        -12.8789   26.2114   28.3840 C.3         1 DGX      -0.0276
     11 C10       -13.8103   27.4587   28.7320 C.3         1 DGX      -0.0258
     12 C11       -13.4445   25.2786   27.2690 C.3         1 DGX      -0.0223
     13 C12       -12.5188   24.0798   26.9366 C.3         1 DGX       0.0664
     14 O12       -13.1665   23.3746   25.8752 O.3         1 DGX      -0.3909
     15 C13       -11.0166   24.4499   26.5815 C.3         1 DGX       0.0405
     16 C14       -10.4381   25.4108   27.6870 C.3         1 DGX       0.0799
     17 O14        -9.1733   25.9466   27.2638 O.3         1 DGX      -0.3874
     18 C15       -10.0919   24.4505   28.8459 C.3         1 DGX      -0.0200
     19 C16        -9.6904   23.1166   28.1914 C.3         1 DGX      -0.0318
     20 C17       -10.1236   23.1377   26.6989 C.3         1 DGX       0.0177
     21 C18       -11.0123   25.0973   25.1617 C.3         1 DGX      -0.0516
     22 C19       -14.0069   28.4234   27.4967 C.3         1 DGX      -0.0590
     23 C20        -8.9841   22.7904   25.8237 C.2         1 DGX      -0.0063
     24 C21        -8.2500   21.5434   26.0182 C.3         1 DGX       0.1204
     25 O21        -7.2753   21.5757   24.9855 O.3         1 DGX      -0.2665
     26 C22        -8.4001   23.4654   24.8321 C.2         1 DGX       0.0017
     27 C23        -7.4015   22.7266   24.2882 C.2         1 DGX       0.2187
     28 O23        -6.6650   23.0685   23.2125 O.2         1 DGX      -0.3870
     29 C1X       -16.8343   28.0291   32.7518 C.3         1 DGX       0.1624
     30 C2X       -17.9573   28.2406   31.6992 C.3         1 DGX       0.0270
     31 C3X       -19.3579   27.8917   32.2614 C.3         1 DGX       0.0881
     32 O3X       -19.7687   28.8694   33.2188 O.3         1 DGX      -0.3890
     33 C4X       -19.3381   26.4785   32.9001 C.3         1 DGX       0.1070
     34 O4X       -20.6287   26.1737   33.4359 O.3         1 DGX      -0.3867
     35 C5X       -18.2235   26.4018   33.9869 C.3         1 DGX       0.0871
     36 O5X       -16.9447   26.7581   33.4375 O.3         1 DGX      -0.3456
     37 C6X       -18.0783   24.9796   34.5819 C.3         1 DGX      -0.0361
     38 H1        -15.7478   26.4533   28.3692 H           1 DGX       0.0271
     39 H2        -15.8880   27.9392   29.2714 H           1 DGX       0.0271
     40 H3        -14.8350   25.2976   30.3961 H           1 DGX       0.0290
     41 H4        -16.4036   26.0097   30.6742 H           1 DGX       0.0290
     42 H5        -14.6820   26.3949   32.5407 H           1 DGX       0.0597
     43 H6        -12.6768   26.6518   31.3422 H           1 DGX       0.0293
     44 H7        -12.9773   28.1935   32.1253 H           1 DGX       0.0293
     45 H8        -13.7388   29.2021   30.0600 H           1 DGX       0.0307
     46 H9        -11.2705   29.1257   30.5627 H           1 DGX       0.0268
     47 H10       -11.6663   29.4056   28.8778 H           1 DGX       0.0268
     48 H11       -10.6546   26.8206   30.1305 H           1 DGX       0.0269
     49 H12        -9.8234   27.8516   28.9748 H           1 DGX       0.0269
     50 H13       -11.3992   27.2658   27.2029 H           1 DGX       0.0332
     51 H14       -12.8442   25.5828   29.2716 H           1 DGX       0.0310
     52 H15       -13.6397   25.8517   26.3651 H           1 DGX       0.0293
     53 H16       -14.3940   24.8517   27.5912 H           1 DGX       0.0293
     54 H17       -12.5433   23.4099   27.8053 H           1 DGX       0.0602
     55 H18       -13.0251   22.4166   26.0476 H           1 DGX       0.2098
     56 H19        -9.3785   26.6812   26.6452 H           1 DGX       0.2102
     57 H20       -10.9631   24.2900   29.4812 H           1 DGX       0.0295
     58 H21        -9.2802   24.8413   29.4728 H           1 DGX       0.0295
     59 H22       -10.2077   22.2991   28.6921 H           1 DGX       0.0301
     60 H23        -8.6143   22.9694   28.3224 H           1 DGX       0.0301
     61 H24       -10.8004   22.2864   26.5440 H           1 DGX       0.0550
     62 H25       -11.1392   24.3228   24.4036 H           1 DGX       0.0239
     63 H26       -10.1054   25.6475   24.9466 H           1 DGX       0.0239
     64 H27       -11.8233   25.8163   25.0679 H           1 DGX       0.0239
     65 H28       -14.5775   29.3076   27.7863 H           1 DGX       0.0235
     66 H29       -14.5619   27.9286   26.6993 H           1 DGX       0.0235
     67 H30       -13.0656   28.7719   27.0802 H           1 DGX       0.0235
     68 H31        -8.8934   20.6697   25.8861 H           1 DGX       0.0859
     69 H32        -7.7527   21.5081   26.9922 H           1 DGX       0.0859
     70 H33        -8.6047   24.3788   24.5412 H           1 DGX       0.0295
     71 H34       -16.9116   28.8242   33.5009 H           1 DGX       0.0910
     72 H35       -17.7636   27.5989   30.8412 H           1 DGX       0.0340
     73 H36       -17.9486   29.2748   31.3489 H           1 DGX       0.0340
     74 H37       -20.0835   27.9025   31.4437 H           1 DGX       0.0621
     75 H38       -19.8493   29.7091   32.7157 H           1 DGX       0.2099
     76 H39       -19.1311   25.7467   32.1111 H           1 DGX       0.0645
     77 H40       -20.7566   25.2186   33.2541 H           1 DGX       0.2100
     78 H41       -18.4730   27.0841   34.8096 H           1 DGX       0.0621
     79 H42       -17.2662   24.9649   35.3113 H           1 DGX       0.0255
     80 H43       -17.8505   24.2536   33.7995 H           1 DGX       0.0255
     81 H44       -18.9955   24.6676   35.0886 H           1 DGX       0.0255
@<TRIPOS>BOND
     1    11     1   1
     2     1     2   1
     3     2     3   1
     4     3     5   1
     5     3     4   1
     6     4    29   1
     7    29    36   1
     8    29    30   1
     9    30    31   1
    10    31    33   1
    11    31    32   1
    12    33    35   1
    13    33    34   1
    14    35    37   1
    15    36    35   1
    16     5     6   1
    17    11     6   1
    18     6     7   1
    19     7     8   1
    20     8     9   1
    21     9    16   1
    22     9    10   1
    23    10    12   1
    24    10    11   1
    25    11    22   1
    26    12    13   1
    27    13    15   1
    28    13    14   1
    29    15    21   1
    30    15    20   1
    31    15    16   1
    32    16    18   1
    33    16    17   1
    34    18    19   1
    35    20    19   1
    36    20    23   1
    37    23    26   2
    38    23    24   1
    39    24    25   1
    40    25    27   1
    41    27    28   2
    42    27    26   1
    43     1    38   1
    44     1    39   1
    45     2    40   1
    46     2    41   1
    47     3    42   1
    48     5    43   1
    49     5    44   1
    50     6    45   1
    51     7    46   1
    52     7    47   1
    53     8    48   1
    54     8    49   1
    55     9    50   1
    56    10    51   1
    57    12    52   1
    58    12    53   1
    59    13    54   1
    60    14    55   1
    61    17    56   1
    62    18    57   1
    63    18    58   1
    64    19    59   1
    65    19    60   1
    66    20    61   1
    67    21    62   1
    68    21    63   1
    69    21    64   1
    70    22    65   1
    71    22    66   1
    72    22    67   1
    73    24    68   1
    74    24    69   1
    75    26    70   1
    76    29    71   1
    77    30    72   1
    78    30    73   1
    79    31    74   1
    80    32    75   1
    81    33    76   1
    82    34    77   1
    83    35    78   1
    84    37    79   1
    85    37    80   1
    86    37    81   1
@<TRIPOS>SUBSTRUCTURE
     1  DGX      1

