@<TRIPOS>MOLECULE
1igj_ligand_014
    81    86
SMALL
GAST_HUCK
****
This file was generated by PARSER (from files_GN.cpp)

@<TRIPOS>ATOM
      1 C1        -13.9820   26.7106   28.6697 C.3         1 DGX      -0.0448
      2 C2        -14.6551   27.7424   27.7293 C.3         1 DGX      -0.0260
      3 C3        -14.3713   29.2148   28.1298 C.3         1 DGX       0.0620
      4 O3        -13.0507   29.7991   27.9653 O.3         1 DGX      -0.3480
      5 C4        -14.8341   29.4035   29.5944 C.3         1 DGX      -0.0232
      6 C5        -14.0599   28.4674   30.5740 C.3         1 DGX      -0.0330
      7 C6        -14.4276   28.7943   32.0486 C.3         1 DGX      -0.0493
      8 C7        -15.8242   28.2631   32.4416 C.3         1 DGX      -0.0470
      9 C8        -15.9581   26.7302   32.2071 C.3         1 DGX      -0.0079
     10 C9        -15.5689   26.3170   30.7385 C.3         1 DGX      -0.0276
     11 C10       -14.1771   26.9192   30.2301 C.3         1 DGX      -0.0258
     12 C11       -15.6669   24.7566   30.6362 C.3         1 DGX      -0.0223
     13 C12       -17.0645   24.2113   31.0236 C.3         1 DGX       0.0664
     14 O12       -17.0489   22.7887   30.8443 O.3         1 DGX      -0.3909
     15 C13       -17.5578   24.6215   32.4707 C.3         1 DGX       0.0405
     16 C14       -17.3562   26.1709   32.6859 C.3         1 DGX       0.0799
     17 O14       -17.5002   26.5040   34.0768 O.3         1 DGX      -0.3874
     18 C15       -18.5947   26.7969   31.9959 C.3         1 DGX      -0.0200
     19 C16       -19.7618   25.8607   32.3537 C.3         1 DGX      -0.0318
     20 C17       -19.1382   24.4449   32.5407 C.3         1 DGX       0.0177
     21 C18       -16.7612   23.7634   33.5251 C.3         1 DGX      -0.0516
     22 C19       -12.9823   26.1803   30.9315 C.3         1 DGX      -0.0590
     23 C20       -19.7006   23.7240   33.6921 C.2         1 DGX      -0.0063
     24 C21       -20.1761   22.3566   33.6290 C.3         1 DGX       0.1204
     25 O21       -20.5676   22.1040   34.9786 O.3         1 DGX      -0.2665
     26 C22       -19.8297   24.1785   34.9415 C.2         1 DGX       0.0017
     27 C23       -20.3505   23.2062   35.7228 C.2         1 DGX       0.2187
     28 O23       -20.5993   23.3112   37.0456 O.2         1 DGX      -0.3870
     29 C1X       -11.9154   29.1612   27.3499 C.3         1 DGX       0.1624
     30 C2X       -11.0003   30.2637   26.7555 C.3         1 DGX       0.0270
     31 C3X        -9.6853   29.6549   26.1946 C.3         1 DGX       0.0881
     32 O3X        -9.9531   28.8717   25.0318 O.3         1 DGX      -0.3890
     33 C4X        -8.9878   28.7705   27.2620 C.3         1 DGX       0.1070
     34 O4X        -7.8685   28.0942   26.6881 O.3         1 DGX      -0.3867
     35 C5X        -9.9948   27.7387   27.8540 C.3         1 DGX       0.0871
     36 O5X       -11.1672   28.4337   28.3432 O.3         1 DGX      -0.3456
     37 C6X        -9.4006   26.9219   29.0299 C.3         1 DGX      -0.0361
     38 H1        -14.3241   25.7277   28.3526 H           1 DGX       0.0271
     39 H2        -12.9265   26.7122   28.4194 H           1 DGX       0.0271
     40 H3        -15.7325   27.5710   27.7585 H           1 DGX       0.0290
     41 H4        -14.3307   27.5744   26.6970 H           1 DGX       0.0290
     42 H5        -15.0308   29.8329   27.5166 H           1 DGX       0.0597
     43 H6        -15.9103   29.2123   29.6582 H           1 DGX       0.0293
     44 H7        -14.6759   30.4510   29.8728 H           1 DGX       0.0293
     45 H8        -13.0145   28.7695   30.4615 H           1 DGX       0.0307
     46 H9        -14.4040   29.8718   32.2159 H           1 DGX       0.0268
     47 H10       -13.6840   28.3611   32.7148 H           1 DGX       0.0268
     48 H11       -16.5908   28.7965   31.8786 H           1 DGX       0.0269
     49 H12       -15.9821   28.4904   33.4981 H           1 DGX       0.0269
     50 H13       -15.2299   26.2670   32.8748 H           1 DGX       0.0332
     51 H14       -16.3334   26.7238   30.0724 H           1 DGX       0.0310
     52 H15       -14.9198   24.2868   31.2729 H           1 DGX       0.0293
     53 H16       -15.4707   24.4126   29.6237 H           1 DGX       0.0293
     54 H17       -17.7571   24.6011   30.2715 H           1 DGX       0.0602
     55 H18       -17.9865   22.5214   30.7263 H           1 DGX       0.2098
     56 H19       -16.6629   26.2442   34.5124 H           1 DGX       0.2102
     57 H20       -18.4806   26.8290   30.9114 H           1 DGX       0.0295
     58 H21       -18.7945   27.8153   32.3433 H           1 DGX       0.0295
     59 H22       -20.5150   25.8702   31.5602 H           1 DGX       0.0301
     60 H23       -20.2361   26.2327   33.2675 H           1 DGX       0.0301
     61 H24       -19.4641   23.8713   31.6657 H           1 DGX       0.0550
     62 H25       -16.9812   22.7007   33.4070 H           1 DGX       0.0239
     63 H26       -17.0163   24.0330   34.5476 H           1 DGX       0.0239
     64 H27       -15.6849   23.8957   33.4235 H           1 DGX       0.0239
     65 H28       -12.0433   26.7190   30.8057 H           1 DGX       0.0235
     66 H29       -12.8360   25.1787   30.5218 H           1 DGX       0.0235
     67 H30       -13.1481   26.0877   31.9957 H           1 DGX       0.0235
     68 H31       -19.3784   21.6742   33.3231 H           1 DGX       0.0859
     69 H32       -21.0348   22.2617   32.9604 H           1 DGX       0.0859
     70 H33       -19.5752   25.0787   35.2666 H           1 DGX       0.0295
     71 H34       -12.2500   28.4869   26.5513 H           1 DGX       0.0910
     72 H35       -10.7593   30.9905   27.5360 H           1 DGX       0.0340
     73 H36       -11.5292   30.7942   25.9600 H           1 DGX       0.0340
     74 H37        -9.0072   30.4634   25.9049 H           1 DGX       0.0621
     75 H38       -10.2650   29.5007   24.3476 H           1 DGX       0.2099
     76 H39        -8.6178   29.4061   28.0779 H           1 DGX       0.0645
     77 H40        -7.1039   28.7038   26.7881 H           1 DGX       0.2100
     78 H41       -10.2908   27.0195   27.0774 H           1 DGX       0.0621
     79 H42       -10.0896   26.1182   29.3100 H           1 DGX       0.0255
     80 H43        -9.2374   27.5657   29.8968 H           1 DGX       0.0255
     81 H44        -8.4530   26.4608   28.7443 H           1 DGX       0.0255
@<TRIPOS>BOND
     1    11     1   1
     2     1     2   1
     3     2     3   1
     4     3     5   1
     5     3     4   1
     6     4    29   1
     7    29    36   1
     8    29    30   1
     9    30    31   1
    10    31    33   1
    11    31    32   1
    12    33    35   1
    13    33    34   1
    14    35    37   1
    15    36    35   1
    16     5     6   1
    17    11     6   1
    18     6     7   1
    19     7     8   1
    20     8     9   1
    21     9    16   1
    22     9    10   1
    23    10    12   1
    24    10    11   1
    25    11    22   1
    26    12    13   1
    27    13    15   1
    28    13    14   1
    29    15    21   1
    30    15    20   1
    31    15    16   1
    32    16    18   1
    33    16    17   1
    34    18    19   1
    35    20    19   1
    36    20    23   1
    37    23    26   2
    38    23    24   1
    39    24    25   1
    40    25    27   1
    41    27    28   2
    42    27    26   1
    43     1    38   1
    44     1    39   1
    45     2    40   1
    46     2    41   1
    47     3    42   1
    48     5    43   1
    49     5    44   1
    50     6    45   1
    51     7    46   1
    52     7    47   1
    53     8    48   1
    54     8    49   1
    55     9    50   1
    56    10    51   1
    57    12    52   1
    58    12    53   1
    59    13    54   1
    60    14    55   1
    61    17    56   1
    62    18    57   1
    63    18    58   1
    64    19    59   1
    65    19    60   1
    66    20    61   1
    67    21    62   1
    68    21    63   1
    69    21    64   1
    70    22    65   1
    71    22    66   1
    72    22    67   1
    73    24    68   1
    74    24    69   1
    75    26    70   1
    76    29    71   1
    77    30    72   1
    78    30    73   1
    79    31    74   1
    80    32    75   1
    81    33    76   1
    82    34    77   1
    83    35    78   1
    84    37    79   1
    85    37    80   1
    86    37    81   1
@<TRIPOS>SUBSTRUCTURE
     1  DGX      1

