@<TRIPOS>MOLECULE
1igj_ligand_001
    81    86
SMALL
GAST_HUCK
****
This file was generated by PARSER (from files_GN.cpp)

@<TRIPOS>ATOM
      1 C1        -13.5533   25.4814   28.6220 C.3         1 DGX      -0.0448
      2 C2        -13.5414   24.8403   30.0323 C.3         1 DGX      -0.0260
      3 C3        -14.8152   25.1879   30.8504 C.3         1 DGX       0.0620
      4 O3        -15.9044   24.3658   30.3610 O.3         1 DGX      -0.3480
      5 C4        -15.1132   26.7170   30.8204 C.3         1 DGX      -0.0232
      6 C5        -15.0101   27.3992   29.4080 C.3         1 DGX      -0.0330
      7 C6        -15.2230   28.9422   29.5107 C.3         1 DGX      -0.0493
      8 C7        -14.0126   29.6931   30.1253 C.3         1 DGX      -0.0470
      9 C8        -12.6424   29.3566   29.4492 C.3         1 DGX      -0.0079
     10 C9        -12.4501   27.8013   29.3041 C.3         1 DGX      -0.0276
     11 C10       -13.6826   27.0521   28.6176 C.3         1 DGX      -0.0258
     12 C11       -11.0644   27.5012   28.6548 C.3         1 DGX      -0.0223
     13 C12        -9.8935   28.1614   29.4268 C.3         1 DGX       0.0664
     14 O12        -8.6779   27.7552   28.7871 O.3         1 DGX      -0.3909
     15 C13       -10.0013   29.7352   29.5835 C.3         1 DGX       0.0405
     16 C14       -11.4311   30.1064   30.1406 C.3         1 DGX       0.0799
     17 O14       -11.6927   31.5097   29.9600 O.3         1 DGX      -0.3874
     18 C15       -11.2853   29.8806   31.6708 C.3         1 DGX      -0.0200
     19 C16        -9.8652   30.3589   32.0228 C.3         1 DGX      -0.0318
     20 C17        -9.0077   30.2196   30.7268 C.3         1 DGX       0.0177
     21 C18        -9.7310   30.3891   28.1792 C.3         1 DGX      -0.0516
     22 C19       -13.8299   27.4509   27.0993 C.3         1 DGX      -0.0590
     23 C20        -8.1257   31.3841   30.4736 C.2         1 DGX      -0.0063
     24 C21        -8.4837   32.7982   30.4888 C.3         1 DGX       0.1204
     25 O21        -7.2448   33.4379   30.1900 O.3         1 DGX      -0.2665
     26 C22        -6.8199   31.2808   30.2062 C.2         1 DGX       0.0017
     27 C23        -6.2822   32.5096   30.0362 C.2         1 DGX       0.2187
     28 O23        -4.9922   32.7789   29.7427 O.2         1 DGX      -0.3870
     29 C1X       -17.0555   23.9750   31.1560 C.3         1 DGX       0.1624
     30 C2X       -16.7820   23.5810   32.6387 C.3         1 DGX       0.0270
     31 C3X       -18.0779   23.1420   33.3651 C.3         1 DGX       0.0881
     32 O3X       -18.4729   21.8237   32.9637 O.3         1 DGX      -0.3890
     33 C4X       -19.2056   24.1959   33.1586 C.3         1 DGX       0.1070
     34 O4X       -20.4235   23.7251   33.7363 O.3         1 DGX      -0.3867
     35 C5X       -19.3806   24.5376   31.6476 C.3         1 DGX       0.0871
     36 O5X       -18.1110   24.9647   31.0812 O.3         1 DGX      -0.3456
     37 C6X       -20.4357   25.6436   31.4081 C.3         1 DGX      -0.0361
     38 H1        -12.6589   25.1559   28.0886 H           1 DGX       0.0271
     39 H2        -14.4015   25.0448   28.0865 H           1 DGX       0.0271
     40 H3        -12.6539   25.1613   30.5797 H           1 DGX       0.0290
     41 H4        -13.4724   23.7530   29.9305 H           1 DGX       0.0290
     42 H5        -14.5737   24.9032   31.8707 H           1 DGX       0.0597
     43 H6        -14.4160   27.1944   31.5103 H           1 DGX       0.0293
     44 H7        -16.1152   26.8817   31.2276 H           1 DGX       0.0293
     45 H8        -15.8594   27.0070   28.8365 H           1 DGX       0.0307
     46 H9        -16.1130   29.1519   30.1095 H           1 DGX       0.0268
     47 H10       -15.4173   29.3479   28.5161 H           1 DGX       0.0268
     48 H11       -13.9698   29.4610   31.1904 H           1 DGX       0.0269
     49 H12       -14.2054   30.7665   30.0415 H           1 DGX       0.0269
     50 H13       -12.6965   29.7662   28.4384 H           1 DGX       0.0332
     51 H14       -12.3794   27.4199   30.3234 H           1 DGX       0.0310
     52 H15       -11.0504   27.8259   27.6149 H           1 DGX       0.0293
     53 H16       -10.8814   26.4257   28.6617 H           1 DGX       0.0293
     54 H17        -9.8842   27.6914   30.4144 H           1 DGX       0.0602
     55 H18        -8.0394   27.5302   29.4974 H           1 DGX       0.2098
     56 H19       -11.0132   31.9907   30.4744 H           1 DGX       0.2102
     57 H20       -11.3909   28.8259   31.9279 H           1 DGX       0.0295
     58 H21       -12.0298   30.4441   32.2404 H           1 DGX       0.0295
     59 H22        -9.4526   29.7662   32.8440 H           1 DGX       0.0301
     60 H23        -9.9334   31.3870   32.3781 H           1 DGX       0.0301
     61 H24        -8.3221   29.3905   30.9410 H           1 DGX       0.0550
     62 H25        -8.7142   30.1736   27.8451 H           1 DGX       0.0239
     63 H26        -9.8498   31.4685   28.2027 H           1 DGX       0.0239
     64 H27       -10.4199   30.0183   27.4215 H           1 DGX       0.0239
     65 H28       -14.7445   27.0347   26.6703 H           1 DGX       0.0235
     66 H29       -12.9956   27.0722   26.5069 H           1 DGX       0.0235
     67 H30       -13.8698   28.5258   26.9528 H           1 DGX       0.0235
     68 H31        -8.8219   33.1374   31.4680 H           1 DGX       0.0859
     69 H32        -9.2211   33.0593   29.7323 H           1 DGX       0.0859
     70 H33        -6.3053   30.4344   30.1286 H           1 DGX       0.0295
     71 H34       -17.4121   23.0756   30.6436 H           1 DGX       0.0910
     72 H35       -16.3906   24.4417   33.1828 H           1 DGX       0.0340
     73 H36       -16.0396   22.7774   32.6760 H           1 DGX       0.0340
     74 H37       -17.8625   23.0750   34.4357 H           1 DGX       0.0621
     75 H38       -18.8857   21.9098   32.0778 H           1 DGX       0.2099
     76 H39       -18.9212   25.1122   33.6846 H           1 DGX       0.0645
     77 H40       -20.2574   23.7040   34.7040 H           1 DGX       0.2100
     78 H41       -19.7361   23.6483   31.1192 H           1 DGX       0.0621
     79 H42       -20.5525   25.8219   30.3370 H           1 DGX       0.0255
     80 H43       -20.1331   26.5774   31.8865 H           1 DGX       0.0255
     81 H44       -21.4042   25.3388   31.8085 H           1 DGX       0.0255
@<TRIPOS>BOND
     1    11     1   1
     2     1     2   1
     3     2     3   1
     4     3     5   1
     5     3     4   1
     6     4    29   1
     7    29    36   1
     8    29    30   1
     9    30    31   1
    10    31    33   1
    11    31    32   1
    12    33    35   1
    13    33    34   1
    14    35    37   1
    15    36    35   1
    16     5     6   1
    17    11     6   1
    18     6     7   1
    19     7     8   1
    20     8     9   1
    21     9    16   1
    22     9    10   1
    23    10    12   1
    24    10    11   1
    25    11    22   1
    26    12    13   1
    27    13    15   1
    28    13    14   1
    29    15    21   1
    30    15    20   1
    31    15    16   1
    32    16    18   1
    33    16    17   1
    34    18    19   1
    35    20    19   1
    36    20    23   1
    37    23    26   2
    38    23    24   1
    39    24    25   1
    40    25    27   1
    41    27    28   2
    42    27    26   1
    43     1    38   1
    44     1    39   1
    45     2    40   1
    46     2    41   1
    47     3    42   1
    48     5    43   1
    49     5    44   1
    50     6    45   1
    51     7    46   1
    52     7    47   1
    53     8    48   1
    54     8    49   1
    55     9    50   1
    56    10    51   1
    57    12    52   1
    58    12    53   1
    59    13    54   1
    60    14    55   1
    61    17    56   1
    62    18    57   1
    63    18    58   1
    64    19    59   1
    65    19    60   1
    66    20    61   1
    67    21    62   1
    68    21    63   1
    69    21    64   1
    70    22    65   1
    71    22    66   1
    72    22    67   1
    73    24    68   1
    74    24    69   1
    75    26    70   1
    76    29    71   1
    77    30    72   1
    78    30    73   1
    79    31    74   1
    80    32    75   1
    81    33    76   1
    82    34    77   1
    83    35    78   1
    84    37    79   1
    85    37    80   1
    86    37    81   1
@<TRIPOS>SUBSTRUCTURE
     1  DGX      1

