@<TRIPOS>MOLECULE
1igj_ligand_045
    81    86
SMALL
GAST_HUCK
****
This file was generated by PARSER (from files_GN.cpp)

@<TRIPOS>ATOM
      1 C1        -10.6936   28.1183   29.5157 C.3         1 DGX      -0.0448
      2 C2        -11.0257   27.4621   28.1436 C.3         1 DGX      -0.0260
      3 C3        -11.1318   28.5191   27.0127 C.3         1 DGX       0.0620
      4 O3         -9.8161   29.0904   26.7837 O.3         1 DGX      -0.3480
      5 C4        -12.2164   29.5425   27.4335 C.3         1 DGX      -0.0232
      6 C5        -11.8483   30.2739   28.7720 C.3         1 DGX      -0.0330
      7 C6        -12.8671   31.4161   29.0551 C.3         1 DGX      -0.0493
      8 C7        -14.2398   30.8745   29.5100 C.3         1 DGX      -0.0470
      9 C8        -14.1159   29.9416   30.7563 C.3         1 DGX      -0.0079
     10 C9        -13.0895   28.7693   30.5018 C.3         1 DGX      -0.0276
     11 C10       -11.6589   29.2804   29.9914 C.3         1 DGX      -0.0258
     12 C11       -13.0405   27.8405   31.7604 C.3         1 DGX      -0.0223
     13 C12       -14.4329   27.3645   32.2559 C.3         1 DGX       0.0664
     14 O12       -14.2153   26.5297   33.3986 O.3         1 DGX      -0.3909
     15 C13       -15.4607   28.5310   32.5558 C.3         1 DGX       0.0405
     16 C14       -15.5249   29.4955   31.3148 C.3         1 DGX       0.0799
     17 O14       -16.2292   30.6839   31.7076 O.3         1 DGX      -0.3874
     18 C15       -16.4450   28.7453   30.3148 C.3         1 DGX      -0.0200
     19 C16       -17.4984   28.0172   31.1769 C.3         1 DGX      -0.0318
     20 C17       -16.9305   27.9327   32.6289 C.3         1 DGX       0.0177
     21 C18       -15.0144   29.2758   33.8712 C.3         1 DGX      -0.0516
     22 C19       -10.8681   30.0260   31.1362 C.3         1 DGX      -0.0590
     23 C20       -17.8434   28.4570   33.6664 C.2         1 DGX      -0.0063
     24 C21       -18.6269   29.6838   33.6342 C.3         1 DGX       0.1204
     25 O21       -19.2526   29.6900   34.9160 O.3         1 DGX      -0.2665
     26 C22       -18.0368   27.8618   34.8496 C.2         1 DGX       0.0017
     27 C23       -18.8812   28.5963   35.6051 C.2         1 DGX       0.2187
     28 O23       -19.2831   28.2958   36.8597 O.2         1 DGX      -0.3870
     29 C1X        -9.6016   30.2109   25.8948 C.3         1 DGX       0.1624
     30 C2X        -9.6527   29.8377   24.3862 C.3         1 DGX       0.0270
     31 C3X        -9.5023   31.1003   23.4859 C.3         1 DGX       0.0881
     32 O3X        -8.1461   31.5591   23.4604 O.3         1 DGX      -0.3890
     33 C4X       -10.4806   32.2343   23.9225 C.3         1 DGX       0.1070
     34 O4X       -10.2046   33.4524   23.2198 O.3         1 DGX      -0.3867
     35 C5X       -10.3746   32.5048   25.4473 C.3         1 DGX       0.0871
     36 O5X       -10.5296   31.2788   26.2019 O.3         1 DGX      -0.3456
     37 C6X       -11.4549   33.4918   25.9576 C.3         1 DGX      -0.0361
     38 H1        -10.6333   27.3311   30.2669 H           1 DGX       0.0271
     39 H2         -9.6744   28.5076   29.4155 H           1 DGX       0.0271
     40 H3        -11.9603   26.9007   28.2196 H           1 DGX       0.0290
     41 H4        -10.2387   26.7473   27.8876 H           1 DGX       0.0290
     42 H5        -11.4510   28.0066   26.0989 H           1 DGX       0.0597
     43 H6        -13.1756   29.0206   27.5206 H           1 DGX       0.0293
     44 H7        -12.3307   30.2674   26.6246 H           1 DGX       0.0293
     45 H8        -10.8899   30.7764   28.5959 H           1 DGX       0.0307
     46 H9        -13.0049   32.0231   28.1553 H           1 DGX       0.0268
     47 H10       -12.4743   32.0790   29.8289 H           1 DGX       0.0268
     48 H11       -14.7117   30.3465   28.6798 H           1 DGX       0.0269
     49 H12       -14.8690   31.7362   29.7396 H           1 DGX       0.0269
     50 H13       -13.6904   30.5636   31.5439 H           1 DGX       0.0332
     51 H14       -13.5049   28.1496   29.7050 H           1 DGX       0.0310
     52 H15       -12.5399   28.3489   32.5843 H           1 DGX       0.0293
     53 H16       -12.4607   26.9444   31.5329 H           1 DGX       0.0293
     54 H17       -14.8319   26.7090   31.4779 H           1 DGX       0.0602
     55 H18       -15.0802   26.1214   33.6070 H           1 DGX       0.2098
     56 H19       -16.5698   31.1020   30.8895 H           1 DGX       0.2102
     57 H20       -15.8829   28.0101   29.7334 H           1 DGX       0.0295
     58 H21       -16.9248   29.4285   29.6089 H           1 DGX       0.0295
     59 H22       -17.6827   27.0173   30.7683 H           1 DGX       0.0301
     60 H23       -18.4417   28.5633   31.1226 H           1 DGX       0.0301
     61 H24       -16.8503   26.8601   32.8364 H           1 DGX       0.0550
     62 H25       -15.0457   28.6009   34.7275 H           1 DGX       0.0239
     63 H26       -15.6590   30.1217   34.1014 H           1 DGX       0.0239
     64 H27       -14.0021   29.6675   33.7882 H           1 DGX       0.0239
     65 H28        -9.9528   30.4770   30.7456 H           1 DGX       0.0235
     66 H29       -10.5661   29.3333   31.9235 H           1 DGX       0.0235
     67 H30       -11.4434   30.8254   31.5994 H           1 DGX       0.0235
     68 H31       -19.3945   29.6674   32.8605 H           1 DGX       0.0859
     69 H32       -18.0096   30.5738   33.5295 H           1 DGX       0.0859
     70 H33       -17.6085   27.0189   35.1521 H           1 DGX       0.0295
     71 H34        -8.5909   30.5517   26.1271 H           1 DGX       0.0910
     72 H35       -10.6063   29.3592   24.1555 H           1 DGX       0.0340
     73 H36        -8.8543   29.1232   24.1570 H           1 DGX       0.0340
     74 H37        -9.7506   30.8200   22.4589 H           1 DGX       0.0621
     75 H38        -7.7079   31.1783   24.2481 H           1 DGX       0.2099
     76 H39       -11.5042   31.9213   23.6798 H           1 DGX       0.0645
     77 H40       -10.0953   33.2007   22.2817 H           1 DGX       0.2100
     78 H41        -9.4001   32.9413   25.6734 H           1 DGX       0.0621
     79 H42       -11.3709   33.6118   27.0424 H           1 DGX       0.0255
     80 H43       -12.4602   33.1206   25.7296 H           1 DGX       0.0255
     81 H44       -11.3345   34.4768   25.4928 H           1 DGX       0.0255
@<TRIPOS>BOND
     1    11     1   1
     2     1     2   1
     3     2     3   1
     4     3     5   1
     5     3     4   1
     6     4    29   1
     7    29    36   1
     8    29    30   1
     9    30    31   1
    10    31    33   1
    11    31    32   1
    12    33    35   1
    13    33    34   1
    14    35    37   1
    15    36    35   1
    16     5     6   1
    17    11     6   1
    18     6     7   1
    19     7     8   1
    20     8     9   1
    21     9    16   1
    22     9    10   1
    23    10    12   1
    24    10    11   1
    25    11    22   1
    26    12    13   1
    27    13    15   1
    28    13    14   1
    29    15    21   1
    30    15    20   1
    31    15    16   1
    32    16    18   1
    33    16    17   1
    34    18    19   1
    35    20    19   1
    36    20    23   1
    37    23    26   2
    38    23    24   1
    39    24    25   1
    40    25    27   1
    41    27    28   2
    42    27    26   1
    43     1    38   1
    44     1    39   1
    45     2    40   1
    46     2    41   1
    47     3    42   1
    48     5    43   1
    49     5    44   1
    50     6    45   1
    51     7    46   1
    52     7    47   1
    53     8    48   1
    54     8    49   1
    55     9    50   1
    56    10    51   1
    57    12    52   1
    58    12    53   1
    59    13    54   1
    60    14    55   1
    61    17    56   1
    62    18    57   1
    63    18    58   1
    64    19    59   1
    65    19    60   1
    66    20    61   1
    67    21    62   1
    68    21    63   1
    69    21    64   1
    70    22    65   1
    71    22    66   1
    72    22    67   1
    73    24    68   1
    74    24    69   1
    75    26    70   1
    76    29    71   1
    77    30    72   1
    78    30    73   1
    79    31    74   1
    80    32    75   1
    81    33    76   1
    82    34    77   1
    83    35    78   1
    84    37    79   1
    85    37    80   1
    86    37    81   1
@<TRIPOS>SUBSTRUCTURE
     1  DGX      1

