@<TRIPOS>MOLECULE
1igj_ligand_017
    81    86
SMALL
GAST_HUCK
****
This file was generated by PARSER (from files_GN.cpp)

@<TRIPOS>ATOM
      1 C1        -11.7206   27.6773   26.9473 C.3         1 DGX      -0.0448
      2 C2        -10.3063   27.5142   27.5637 C.3         1 DGX      -0.0260
      3 C3         -9.8988   26.0257   27.7626 C.3         1 DGX       0.0620
      4 O3         -9.6868   25.3709   26.4789 O.3         1 DGX      -0.3480
      5 C4        -10.9916   25.3596   28.6438 C.3         1 DGX      -0.0232
      6 C5        -12.4122   25.4441   27.9819 C.3         1 DGX      -0.0330
      7 C6        -13.4603   24.6058   28.7788 C.3         1 DGX      -0.0493
      8 C7        -13.8227   25.2907   30.1177 C.3         1 DGX      -0.0470
      9 C8        -14.3349   26.7615   29.9274 C.3         1 DGX      -0.0079
     10 C9        -13.3375   27.6322   29.0681 C.3         1 DGX      -0.0276
     11 C10       -12.8957   26.9325   27.6987 C.3         1 DGX      -0.0258
     12 C11       -13.9418   29.0731   28.9305 C.3         1 DGX      -0.0223
     13 C12       -14.2878   29.7337   30.2957 C.3         1 DGX       0.0664
     14 O12       -14.7827   31.0550   30.0362 O.3         1 DGX      -0.3909
     15 C13       -15.2717   28.8903   31.2048 C.3         1 DGX       0.0405
     16 C14       -14.7647   27.4089   31.3025 C.3         1 DGX       0.0799
     17 O14       -15.7835   26.5735   31.8697 O.3         1 DGX      -0.3874
     18 C15       -13.6523   27.4678   32.3793 C.3         1 DGX      -0.0200
     19 C16       -14.1568   28.4667   33.4312 C.3         1 DGX      -0.0318
     20 C17       -15.1720   29.4111   32.7028 C.3         1 DGX       0.0177
     21 C18       -16.7127   28.9829   30.5686 C.3         1 DGX      -0.0516
     22 C19       -14.0895   26.9118   26.6734 C.3         1 DGX      -0.0590
     23 C20       -16.4376   29.6304   33.4298 C.2         1 DGX      -0.0063
     24 C21       -17.2197   28.6497   34.1680 C.3         1 DGX       0.1204
     25 O21       -18.3585   29.4064   34.5576 O.3         1 DGX      -0.2665
     26 C22       -17.0917   30.7980   33.4286 C.2         1 DGX       0.0017
     27 C23       -18.2459   30.6703   34.1106 C.2         1 DGX       0.2187
     28 O23       -19.1531   31.6497   34.3104 O.2         1 DGX      -0.3870
     29 C1X        -9.3994   23.9483   26.4304 C.3         1 DGX       0.1624
     30 C2X       -10.6524   23.1807   25.9266 C.3         1 DGX       0.0270
     31 C3X       -10.3272   21.7035   25.6082 C.3         1 DGX       0.0881
     32 O3X       -10.2706   20.9816   26.8346 O.3         1 DGX      -0.3890
     33 C4X        -9.0003   21.5246   24.8111 C.3         1 DGX       0.1070
     34 O4X        -8.6213   20.1423   24.9067 O.3         1 DGX      -0.3867
     35 C5X        -7.8419   22.4172   25.3524 C.3         1 DGX       0.0871
     36 O5X        -8.2902   23.7863   25.5255 O.3         1 DGX      -0.3456
     37 C6X        -6.6121   22.4226   24.3962 C.3         1 DGX      -0.0361
     38 H1        -11.9360   28.7411   26.8657 H           1 DGX       0.0271
     39 H2        -11.6499   27.3017   25.9171 H           1 DGX       0.0271
     40 H3        -10.2908   28.0235   28.5281 H           1 DGX       0.0290
     41 H4         -9.5716   28.0086   26.9206 H           1 DGX       0.0290
     42 H5         -8.9450   26.0094   28.2935 H           1 DGX       0.0597
     43 H6        -10.9778   25.8642   29.6005 H           1 DGX       0.0293
     44 H7        -10.7367   24.3102   28.8312 H           1 DGX       0.0293
     45 H8        -12.3249   24.9369   27.0165 H           1 DGX       0.0307
     46 H9        -13.0439   23.6214   28.9877 H           1 DGX       0.0268
     47 H10       -14.3657   24.4572   28.1926 H           1 DGX       0.0268
     48 H11       -12.9464   25.2899   30.7751 H           1 DGX       0.0269
     49 H12       -14.5895   24.6854   30.6067 H           1 DGX       0.0269
     50 H13       -15.2554   26.6688   29.3478 H           1 DGX       0.0332
     51 H14       -12.4325   27.7491   29.6664 H           1 DGX       0.0310
     52 H15       -14.8382   29.0496   28.3061 H           1 DGX       0.0293
     53 H16       -13.2200   29.7284   28.4292 H           1 DGX       0.0293
     54 H17       -13.3355   29.8794   30.8055 H           1 DGX       0.0602
     55 H18       -14.7908   31.5057   30.9066 H           1 DGX       0.2098
     56 H19       -16.4858   26.4867   31.2030 H           1 DGX       0.2102
     57 H20       -12.7083   27.8281   31.9657 H           1 DGX       0.0295
     58 H21       -13.4709   26.4966   32.8395 H           1 DGX       0.0295
     59 H22       -13.3198   29.0299   33.8584 H           1 DGX       0.0301
     60 H23       -14.6139   27.9049   34.2488 H           1 DGX       0.0301
     61 H24       -14.6711   30.3888   32.6986 H           1 DGX       0.0550
     62 H25       -17.0652   30.0205   30.5304 H           1 DGX       0.0239
     63 H26       -17.4544   28.4162   31.1344 H           1 DGX       0.0239
     64 H27       -16.7336   28.5901   29.5486 H           1 DGX       0.0239
     65 H28       -13.8388   26.3408   25.7687 H           1 DGX       0.0235
     66 H29       -14.3477   27.9200   26.3581 H           1 DGX       0.0235
     67 H30       -14.9903   26.4684   27.0998 H           1 DGX       0.0235
     68 H31       -16.7070   28.2931   35.0593 H           1 DGX       0.0859
     69 H32       -17.5181   27.8116   33.5466 H           1 DGX       0.0859
     70 H33       -16.7986   31.6258   32.9723 H           1 DGX       0.0295
     71 H34        -9.0950   23.5578   27.4131 H           1 DGX       0.0910
     72 H35       -11.0669   23.6692   25.0436 H           1 DGX       0.0340
     73 H36       -11.4165   23.1769   26.6948 H           1 DGX       0.0340
     74 H37       -11.1463   21.2841   25.0257 H           1 DGX       0.0621
     75 H38       -11.1765   20.6145   26.9359 H           1 DGX       0.2099
     76 H39        -9.2006   21.7874   23.7652 H           1 DGX       0.0645
     77 H40        -7.6327   20.1481   25.0416 H           1 DGX       0.2100
     78 H41        -7.5026   21.9860   26.3091 H           1 DGX       0.0621
     79 H42        -5.8174   23.0350   24.8314 H           1 DGX       0.0255
     80 H43        -6.8853   22.8410   23.4273 H           1 DGX       0.0255
     81 H44        -6.2036   21.4137   24.2413 H           1 DGX       0.0255
@<TRIPOS>BOND
     1    11     1   1
     2     1     2   1
     3     2     3   1
     4     3     5   1
     5     3     4   1
     6     4    29   1
     7    29    36   1
     8    29    30   1
     9    30    31   1
    10    31    33   1
    11    31    32   1
    12    33    35   1
    13    33    34   1
    14    35    37   1
    15    36    35   1
    16     5     6   1
    17    11     6   1
    18     6     7   1
    19     7     8   1
    20     8     9   1
    21     9    16   1
    22     9    10   1
    23    10    12   1
    24    10    11   1
    25    11    22   1
    26    12    13   1
    27    13    15   1
    28    13    14   1
    29    15    21   1
    30    15    20   1
    31    15    16   1
    32    16    18   1
    33    16    17   1
    34    18    19   1
    35    20    19   1
    36    20    23   1
    37    23    26   2
    38    23    24   1
    39    24    25   1
    40    25    27   1
    41    27    28   2
    42    27    26   1
    43     1    38   1
    44     1    39   1
    45     2    40   1
    46     2    41   1
    47     3    42   1
    48     5    43   1
    49     5    44   1
    50     6    45   1
    51     7    46   1
    52     7    47   1
    53     8    48   1
    54     8    49   1
    55     9    50   1
    56    10    51   1
    57    12    52   1
    58    12    53   1
    59    13    54   1
    60    14    55   1
    61    17    56   1
    62    18    57   1
    63    18    58   1
    64    19    59   1
    65    19    60   1
    66    20    61   1
    67    21    62   1
    68    21    63   1
    69    21    64   1
    70    22    65   1
    71    22    66   1
    72    22    67   1
    73    24    68   1
    74    24    69   1
    75    26    70   1
    76    29    71   1
    77    30    72   1
    78    30    73   1
    79    31    74   1
    80    32    75   1
    81    33    76   1
    82    34    77   1
    83    35    78   1
    84    37    79   1
    85    37    80   1
    86    37    81   1
@<TRIPOS>SUBSTRUCTURE
     1  DGX      1

