@<TRIPOS>MOLECULE
1igj_ligand_074
    81    86
SMALL
GAST_HUCK
****
This file was generated by PARSER (from files_GN.cpp)

@<TRIPOS>ATOM
      1 C1        -12.9510   24.8714   29.0115 C.3         1 DGX      -0.0448
      2 C2        -12.0462   23.7503   29.5679 C.3         1 DGX      -0.0260
      3 C3        -12.4906   22.3652   29.0245 C.3         1 DGX       0.0620
      4 O3        -12.4014   22.2187   27.5798 O.3         1 DGX      -0.3480
      5 C4        -13.9547   22.1291   29.4802 C.3         1 DGX      -0.0232
      6 C5        -14.9342   23.2615   29.0185 C.3         1 DGX      -0.0330
      7 C6        -16.3838   22.9442   29.4917 C.3         1 DGX      -0.0493
      8 C7        -16.6065   23.2142   30.9978 C.3         1 DGX      -0.0470
      9 C8        -16.2188   24.6671   31.4198 C.3         1 DGX      -0.0079
     10 C9        -14.7539   25.0158   30.9544 C.3         1 DGX      -0.0276
     11 C10       -14.4751   24.7337   29.4044 C.3         1 DGX      -0.0258
     12 C11       -14.3895   26.4613   31.4235 C.3         1 DGX      -0.0223
     13 C12       -14.5967   26.6906   32.9410 C.3         1 DGX       0.0664
     14 O12       -14.1894   28.0318   33.2334 O.3         1 DGX      -0.3909
     15 C13       -16.0571   26.3699   33.4603 C.3         1 DGX       0.0405
     16 C14       -16.4994   24.9444   32.9547 C.3         1 DGX       0.0799
     17 O14       -17.9178   24.8095   33.1467 O.3         1 DGX      -0.3874
     18 C15       -15.8182   23.9659   33.9556 C.3         1 DGX      -0.0200
     19 C16       -15.6873   24.7125   35.3021 C.3         1 DGX      -0.0318
     20 C17       -16.0150   26.2130   35.0372 C.3         1 DGX       0.0177
     21 C18       -17.0281   27.5080   32.9710 C.3         1 DGX      -0.0516
     22 C19       -15.2146   25.7809   28.4984 C.3         1 DGX      -0.0590
     23 C20       -17.1652   26.7077   35.8156 C.2         1 DGX      -0.0063
     24 C21       -17.1373   27.9273   36.6010 C.3         1 DGX       0.1204
     25 O21       -18.4509   27.9719   37.1541 O.3         1 DGX      -0.2665
     26 C22       -18.3712   26.1426   35.9308 C.2         1 DGX       0.0017
     27 C23       -19.1501   26.8996   36.7364 C.2         1 DGX       0.2187
     28 O23       -20.4273   26.6261   37.0800 O.2         1 DGX      -0.3870
     29 C1X       -11.0918   22.3107   26.9732 C.3         1 DGX       0.1624
     30 C2X       -11.1448   21.8865   25.4827 C.3         1 DGX       0.0270
     31 C3X        -9.8269   22.2046   24.7247 C.3         1 DGX       0.0881
     32 O3X        -8.8258   21.2403   25.0535 O.3         1 DGX      -0.3890
     33 C4X        -9.3255   23.6461   25.0123 C.3         1 DGX       0.1070
     34 O4X        -8.0360   23.8624   24.4450 O.3         1 DGX      -0.3867
     35 C5X        -9.3291   23.9337   26.5405 C.3         1 DGX       0.0871
     36 O5X       -10.6497   23.6783   27.0552 O.3         1 DGX      -0.3456
     37 C6X        -8.9723   25.3933   26.9085 C.3         1 DGX      -0.0361
     38 H1        -12.5403   25.8300   29.3252 H           1 DGX       0.0271
     39 H2        -12.8520   24.8518   27.9224 H           1 DGX       0.0271
     40 H3        -12.0986   23.7436   30.6529 H           1 DGX       0.0290
     41 H4        -11.0009   23.9478   29.3107 H           1 DGX       0.0290
     42 H5        -11.8777   21.5881   29.4879 H           1 DGX       0.0597
     43 H6        -13.9621   22.0375   30.5681 H           1 DGX       0.0293
     44 H7        -14.2877   21.1643   29.0863 H           1 DGX       0.0293
     45 H8        -14.9533   23.1875   27.9261 H           1 DGX       0.0307
     46 H9        -16.6293   21.9019   29.2754 H           1 DGX       0.0268
     47 H10       -17.0862   23.5510   28.9240 H           1 DGX       0.0268
     48 H11       -16.0363   22.4889   31.5798 H           1 DGX       0.0269
     49 H12       -17.6651   23.0317   31.2037 H           1 DGX       0.0269
     50 H13       -16.8977   25.3297   30.8777 H           1 DGX       0.0332
     51 H14       -14.1015   24.3488   31.5152 H           1 DGX       0.0310
     52 H15       -14.9743   27.2001   30.8756 H           1 DGX       0.0293
     53 H16       -13.3371   26.6611   31.2200 H           1 DGX       0.0293
     54 H17       -13.8785   26.0472   33.4532 H           1 DGX       0.0602
     55 H18       -14.1147   28.0876   34.2087 H           1 DGX       0.2098
     56 H19       -18.1281   23.8590   33.0405 H           1 DGX       0.2102
     57 H20       -14.8230   23.6818   33.6092 H           1 DGX       0.0295
     58 H21       -16.3945   23.0442   34.0801 H           1 DGX       0.0295
     59 H22       -14.6638   24.6074   35.6785 H           1 DGX       0.0301
     60 H23       -16.3488   24.2605   36.0470 H           1 DGX       0.0301
     61 H24       -15.1614   26.7821   35.4195 H           1 DGX       0.0550
     62 H25       -16.7209   28.4756   33.3706 H           1 DGX       0.0239
     63 H26       -18.0534   27.3314   33.2957 H           1 DGX       0.0239
     64 H27       -17.0456   27.5806   31.8834 H           1 DGX       0.0239
     65 H28       -15.1448   25.5063   27.4458 H           1 DGX       0.0235
     66 H29       -14.7774   26.7749   28.5939 H           1 DGX       0.0235
     67 H30       -16.2647   25.8633   28.7497 H           1 DGX       0.0235
     68 H31       -16.9593   28.8034   35.9739 H           1 DGX       0.0859
     69 H32       -16.3917   27.8741   37.3972 H           1 DGX       0.0859
     70 H33       -18.6583   25.2857   35.5279 H           1 DGX       0.0295
     71 H34       -10.3993   21.6490   27.4988 H           1 DGX       0.0910
     72 H35       -11.9659   22.4144   25.0003 H           1 DGX       0.0340
     73 H36       -11.3462   20.8161   25.4123 H           1 DGX       0.0340
     74 H37       -10.0108   22.1167   23.6532 H           1 DGX       0.0621
     75 H38        -8.7080   21.2898   26.0251 H           1 DGX       0.2099
     76 H39       -10.0115   24.3488   24.5352 H           1 DGX       0.0645
     77 H40        -7.4478   23.2004   24.8667 H           1 DGX       0.2100
     78 H41        -8.6112   23.2862   27.0488 H           1 DGX       0.0621
     79 H42        -9.1056   25.5524   27.9841 H           1 DGX       0.0255
     80 H43        -9.6145   26.0973   26.3703 H           1 DGX       0.0255
     81 H44        -7.9283   25.5998   26.6620 H           1 DGX       0.0255
@<TRIPOS>BOND
     1    11     1   1
     2     1     2   1
     3     2     3   1
     4     3     5   1
     5     3     4   1
     6     4    29   1
     7    29    36   1
     8    29    30   1
     9    30    31   1
    10    31    33   1
    11    31    32   1
    12    33    35   1
    13    33    34   1
    14    35    37   1
    15    36    35   1
    16     5     6   1
    17    11     6   1
    18     6     7   1
    19     7     8   1
    20     8     9   1
    21     9    16   1
    22     9    10   1
    23    10    12   1
    24    10    11   1
    25    11    22   1
    26    12    13   1
    27    13    15   1
    28    13    14   1
    29    15    21   1
    30    15    20   1
    31    15    16   1
    32    16    18   1
    33    16    17   1
    34    18    19   1
    35    20    19   1
    36    20    23   1
    37    23    26   2
    38    23    24   1
    39    24    25   1
    40    25    27   1
    41    27    28   2
    42    27    26   1
    43     1    38   1
    44     1    39   1
    45     2    40   1
    46     2    41   1
    47     3    42   1
    48     5    43   1
    49     5    44   1
    50     6    45   1
    51     7    46   1
    52     7    47   1
    53     8    48   1
    54     8    49   1
    55     9    50   1
    56    10    51   1
    57    12    52   1
    58    12    53   1
    59    13    54   1
    60    14    55   1
    61    17    56   1
    62    18    57   1
    63    18    58   1
    64    19    59   1
    65    19    60   1
    66    20    61   1
    67    21    62   1
    68    21    63   1
    69    21    64   1
    70    22    65   1
    71    22    66   1
    72    22    67   1
    73    24    68   1
    74    24    69   1
    75    26    70   1
    76    29    71   1
    77    30    72   1
    78    30    73   1
    79    31    74   1
    80    32    75   1
    81    33    76   1
    82    34    77   1
    83    35    78   1
    84    37    79   1
    85    37    80   1
    86    37    81   1
@<TRIPOS>SUBSTRUCTURE
     1  DGX      1

