@<TRIPOS>MOLECULE
1igj_ligand_078
    81    86
SMALL
GAST_HUCK
****
This file was generated by PARSER (from files_GN.cpp)

@<TRIPOS>ATOM
      1 C1        -14.7560   23.2305   30.4421 C.3         1 DGX      -0.0448
      2 C2        -14.0687   23.9997   31.5867 C.3         1 DGX      -0.0260
      3 C3        -14.5814   25.4620   31.6876 C.3         1 DGX       0.0620
      4 O3        -15.9743   25.5589   32.0738 O.3         1 DGX      -0.3480
      5 C4        -14.3724   26.1674   30.3190 C.3         1 DGX      -0.0232
      6 C5        -14.9995   25.3957   29.1061 C.3         1 DGX      -0.0330
      7 C6        -14.7542   26.1700   27.7740 C.3         1 DGX      -0.0493
      8 C7        -13.2948   26.0714   27.2738 C.3         1 DGX      -0.0470
      9 C8        -12.8067   24.5937   27.1297 C.3         1 DGX      -0.0079
     10 C9        -13.0669   23.7763   28.4542 C.3         1 DGX      -0.0276
     11 C10       -14.5596   23.8764   29.0146 C.3         1 DGX      -0.0258
     12 C11       -12.5687   22.3147   28.2299 C.3         1 DGX      -0.0223
     13 C12       -11.0864   22.2420   27.8083 C.3         1 DGX       0.0664
     14 O12       -10.7331   20.8608   27.7023 O.3         1 DGX      -0.3909
     15 C13       -10.7113   23.0480   26.5027 C.3         1 DGX       0.0405
     16 C14       -11.3253   24.5000   26.5779 C.3         1 DGX       0.0799
     17 O14       -11.3635   25.0942   25.2683 O.3         1 DGX      -0.3874
     18 C15       -10.2759   25.2971   27.3936 C.3         1 DGX      -0.0200
     19 C16        -8.9197   24.7727   26.9021 C.3         1 DGX      -0.0318
     20 C17        -9.1367   23.2814   26.4900 C.3         1 DGX       0.0177
     21 C18       -11.2506   22.2540   25.2571 C.3         1 DGX      -0.0516
     22 C19       -15.5494   23.0718   28.0991 C.3         1 DGX      -0.0590
     23 C20        -8.3569   22.8418   25.3276 C.2         1 DGX      -0.0063
     24 C21        -7.8318   21.4920   25.1636 C.3         1 DGX       0.1204
     25 O21        -7.1157   21.5763   23.9390 O.3         1 DGX      -0.2665
     26 C22        -7.9916   23.5776   24.2632 C.2         1 DGX       0.0017
     27 C23        -7.2232   22.8299   23.4413 C.2         1 DGX       0.2187
     28 O23        -6.6535   23.2334   22.2887 O.2         1 DGX      -0.3870
     29 C1X       -16.4064   25.1341   33.3864 C.3         1 DGX       0.1624
     30 C2X       -17.5003   24.0475   33.1968 C.3         1 DGX       0.0270
     31 C3X       -17.9406   23.4258   34.5428 C.3         1 DGX       0.0881
     32 O3X       -18.7000   24.3609   35.3109 O.3         1 DGX      -0.3890
     33 C4X       -16.6995   22.9477   35.3469 C.3         1 DGX       0.1070
     34 O4X       -17.1049   22.4206   36.6108 O.3         1 DGX      -0.3867
     35 C5X       -15.6785   24.1136   35.5209 C.3         1 DGX       0.0871
     36 O5X       -15.3234   24.6763   34.2347 O.3         1 DGX      -0.3456
     37 C6X       -14.3637   23.6503   36.1906 C.3         1 DGX      -0.0361
     38 H1        -14.4106   22.1976   30.4688 H           1 DGX       0.0271
     39 H2        -15.8230   23.1944   30.6786 H           1 DGX       0.0271
     40 H3        -12.9940   24.0074   31.4119 H           1 DGX       0.0290
     41 H4        -14.2410   23.4593   32.5170 H           1 DGX       0.0290
     42 H5        -13.9788   26.0086   32.4209 H           1 DGX       0.0597
     43 H6        -13.2980   26.2963   30.1672 H           1 DGX       0.0293
     44 H7        -14.8059   27.1697   30.3731 H           1 DGX       0.0293
     45 H8        -16.0787   25.4255   29.2741 H           1 DGX       0.0307
     46 H9        -15.0199   27.2235   27.8957 H           1 DGX       0.0268
     47 H10       -15.4012   25.7747   26.9931 H           1 DGX       0.0268
     48 H11       -12.6478   26.6212   27.9590 H           1 DGX       0.0269
     49 H12       -13.2362   26.5776   26.3042 H           1 DGX       0.0269
     50 H13       -13.4366   24.1481   26.3536 H           1 DGX       0.0332
     51 H14       -12.4122   24.2077   29.2131 H           1 DGX       0.0310
     52 H15       -13.1694   21.8356   27.4610 H           1 DGX       0.0293
     53 H16       -12.6788   21.7294   29.1457 H           1 DGX       0.0293
     54 H17       -10.5267   22.6437   28.6532 H           1 DGX       0.0602
     55 H18        -9.9281   20.8341   27.1459 H           1 DGX       0.2098
     56 H19       -10.4611   25.0206   24.9011 H           1 DGX       0.2102
     57 H20       -10.3771   25.1113   28.4656 H           1 DGX       0.0295
     58 H21       -10.3499   26.3749   27.2236 H           1 DGX       0.0295
     59 H22        -8.1725   24.8799   27.6961 H           1 DGX       0.0301
     60 H23        -8.6023   25.3885   26.0564 H           1 DGX       0.0301
     61 H24        -8.7004   22.7156   27.3206 H           1 DGX       0.0550
     62 H25       -10.8005   21.2611   25.2009 H           1 DGX       0.0239
     63 H26       -11.0113   22.7720   24.3283 H           1 DGX       0.0239
     64 H27       -12.3351   22.1279   25.3030 H           1 DGX       0.0239
     65 H28       -16.5796   23.2310   28.4164 H           1 DGX       0.0235
     66 H29       -15.3745   21.9957   28.1584 H           1 DGX       0.0235
     67 H30       -15.4571   23.3659   27.0575 H           1 DGX       0.0235
     68 H31        -8.6348   20.7520   25.0818 H           1 DGX       0.0859
     69 H32        -7.1508   21.2236   25.9760 H           1 DGX       0.0859
     70 H33        -8.2325   24.5253   24.1017 H           1 DGX       0.0295
     71 H34       -16.8554   26.0084   33.8612 H           1 DGX       0.0910
     72 H35       -17.1073   23.2502   32.5652 H           1 DGX       0.0340
     73 H36       -18.3643   24.4819   32.6883 H           1 DGX       0.0340
     74 H37       -18.5820   22.5642   34.3423 H           1 DGX       0.0621
     75 H38       -19.4933   24.5581   34.7712 H           1 DGX       0.2099
     76 H39       -16.2196   22.1359   34.7910 H           1 DGX       0.0645
     77 H40       -17.5169   23.1713   37.0908 H           1 DGX       0.2100
     78 H41       -16.1233   24.8974   36.1408 H           1 DGX       0.0621
     79 H42       -13.6891   24.5006   36.3030 H           1 DGX       0.0255
     80 H43       -13.8717   22.8947   35.5750 H           1 DGX       0.0255
     81 H44       -14.5625   23.2327   37.1771 H           1 DGX       0.0255
@<TRIPOS>BOND
     1    11     1   1
     2     1     2   1
     3     2     3   1
     4     3     5   1
     5     3     4   1
     6     4    29   1
     7    29    36   1
     8    29    30   1
     9    30    31   1
    10    31    33   1
    11    31    32   1
    12    33    35   1
    13    33    34   1
    14    35    37   1
    15    36    35   1
    16     5     6   1
    17    11     6   1
    18     6     7   1
    19     7     8   1
    20     8     9   1
    21     9    16   1
    22     9    10   1
    23    10    12   1
    24    10    11   1
    25    11    22   1
    26    12    13   1
    27    13    15   1
    28    13    14   1
    29    15    21   1
    30    15    20   1
    31    15    16   1
    32    16    18   1
    33    16    17   1
    34    18    19   1
    35    20    19   1
    36    20    23   1
    37    23    26   2
    38    23    24   1
    39    24    25   1
    40    25    27   1
    41    27    28   2
    42    27    26   1
    43     1    38   1
    44     1    39   1
    45     2    40   1
    46     2    41   1
    47     3    42   1
    48     5    43   1
    49     5    44   1
    50     6    45   1
    51     7    46   1
    52     7    47   1
    53     8    48   1
    54     8    49   1
    55     9    50   1
    56    10    51   1
    57    12    52   1
    58    12    53   1
    59    13    54   1
    60    14    55   1
    61    17    56   1
    62    18    57   1
    63    18    58   1
    64    19    59   1
    65    19    60   1
    66    20    61   1
    67    21    62   1
    68    21    63   1
    69    21    64   1
    70    22    65   1
    71    22    66   1
    72    22    67   1
    73    24    68   1
    74    24    69   1
    75    26    70   1
    76    29    71   1
    77    30    72   1
    78    30    73   1
    79    31    74   1
    80    32    75   1
    81    33    76   1
    82    34    77   1
    83    35    78   1
    84    37    79   1
    85    37    80   1
    86    37    81   1
@<TRIPOS>SUBSTRUCTURE
     1  DGX      1

