@<TRIPOS>MOLECULE
1igj_ligand_000
    81    86
SMALL
GAST_HUCK
****
This file was generated by PARSER (from files_GN.cpp)

@<TRIPOS>ATOM
      1 C1        -13.3675   29.3990   28.8471 C.3         1 DGX      -0.0448
      2 C2        -14.7408   29.4101   28.1225 C.3         1 DGX      -0.0260
      3 C3        -15.8855   28.9736   29.0737 C.3         1 DGX       0.0620
      4 O3        -16.0074   29.9644   30.1273 O.3         1 DGX      -0.3480
      5 C4        -15.5480   27.5400   29.5746 C.3         1 DGX      -0.0232
      6 C5        -14.2088   27.5382   30.3924 C.3         1 DGX      -0.0330
      7 C6        -13.9758   26.1553   31.0664 C.3         1 DGX      -0.0493
      8 C7        -13.5603   25.0732   30.0493 C.3         1 DGX      -0.0470
      9 C8        -12.3073   25.4812   29.2086 C.3         1 DGX      -0.0079
     10 C9        -12.5163   26.8870   28.5222 C.3         1 DGX      -0.0276
     11 C10       -12.9566   28.0345   29.5463 C.3         1 DGX      -0.0258
     12 C11       -11.2623   27.2207   27.6498 C.3         1 DGX      -0.0223
     13 C12       -10.9410   26.1079   26.6208 C.3         1 DGX       0.0664
     14 O12        -9.8709   26.5411   25.7782 O.3         1 DGX      -0.3909
     15 C13       -10.6645   24.6827   27.2533 C.3         1 DGX       0.0405
     16 C14       -11.8350   24.3176   28.2497 C.3         1 DGX       0.0799
     17 O14       -11.3991   23.2394   29.1014 O.3         1 DGX      -0.3874
     18 C15       -12.9131   23.7075   27.3197 C.3         1 DGX      -0.0200
     19 C16       -12.0918   22.7966   26.3935 C.3         1 DGX      -0.0318
     20 C17       -10.7676   23.5728   26.1120 C.3         1 DGX       0.0177
     21 C18        -9.2877   24.6992   28.0147 C.3         1 DGX      -0.0516
     22 C19       -11.7816   28.4115   30.5273 C.3         1 DGX      -0.0590
     23 C20        -9.5801   22.7456   25.8042 C.2         1 DGX      -0.0063
     24 C21        -8.4838   23.2238   24.9748 C.3         1 DGX       0.1204
     25 O21        -7.6274   22.0900   24.8750 O.3         1 DGX      -0.2665
     26 C22        -9.3409   21.4627   26.1153 C.2         1 DGX       0.0017
     27 C23        -8.1749   21.0614   25.5478 C.2         1 DGX       0.2187
     28 O23        -7.6291   19.8235   25.6064 O.2         1 DGX      -0.3870
     29 C1X       -17.1102   29.8590   31.0506 C.3         1 DGX       0.1624
     30 C2X       -16.8470   30.8270   32.2335 C.3         1 DGX       0.0270
     31 C3X       -18.0272   30.8044   33.2422 C.3         1 DGX       0.0881
     32 O3X       -18.0333   29.5823   33.9859 O.3         1 DGX      -0.3890
     33 C4X       -19.3803   31.0344   32.5115 C.3         1 DGX       0.1070
     34 O4X       -20.4673   30.8389   33.4169 O.3         1 DGX      -0.3867
     35 C5X       -19.5198   30.0966   31.2695 C.3         1 DGX       0.0871
     36 O5X       -18.3582   30.1994   30.4076 O.3         1 DGX      -0.3456
     37 C6X       -20.7816   30.4261   30.4340 C.3         1 DGX      -0.0361
     38 H1        -12.6033   29.7178   28.1388 H           1 DGX       0.0271
     39 H2        -13.4170   30.1922   29.6013 H           1 DGX       0.0271
     40 H3        -14.7017   28.7458   27.2543 H           1 DGX       0.0290
     41 H4        -14.9489   30.4194   27.7573 H           1 DGX       0.0290
     42 H5        -16.8139   28.9481   28.4972 H           1 DGX       0.0597
     43 H6        -15.4849   26.8723   28.7116 H           1 DGX       0.0293
     44 H7        -16.3772   27.1646   30.1792 H           1 DGX       0.0293
     45 H8        -14.3638   28.2385   31.2253 H           1 DGX       0.0307
     46 H9        -14.8840   25.8297   31.5820 H           1 DGX       0.0268
     47 H10       -13.1986   26.2461   31.8288 H           1 DGX       0.0268
     48 H11       -14.4047   24.8693   29.3884 H           1 DGX       0.0269
     49 H12       -13.3603   24.1583   30.6134 H           1 DGX       0.0269
     50 H13       -11.4942   25.5982   29.9289 H           1 DGX       0.0332
     51 H14       -13.3380   26.7647   27.8141 H           1 DGX       0.0310
     52 H15       -10.3896   27.3859   28.2818 H           1 DGX       0.0293
     53 H16       -11.4387   28.1375   27.0859 H           1 DGX       0.0293
     54 H17       -11.8099   26.0516   25.9563 H           1 DGX       0.0602
     55 H18        -9.1806   26.8881   26.3792 H           1 DGX       0.2098
     56 H19       -12.2084   22.8296   29.4669 H           1 DGX       0.2102
     57 H20       -13.4248   24.4801   26.7420 H           1 DGX       0.0295
     58 H21       -13.6629   23.1304   27.8697 H           1 DGX       0.0295
     59 H22       -12.6485   22.5640   25.4841 H           1 DGX       0.0301
     60 H23       -11.9097   21.8584   26.9203 H           1 DGX       0.0301
     61 H24       -10.9736   24.0713   25.1581 H           1 DGX       0.0550
     62 H25        -8.4852   25.0727   27.3809 H           1 DGX       0.0239
     63 H26        -9.0068   23.6976   28.3461 H           1 DGX       0.0239
     64 H27        -9.3333   25.3388   28.8960 H           1 DGX       0.0239
     65 H28       -12.1227   29.1000   31.3033 H           1 DGX       0.0235
     66 H29       -10.9695   28.9079   29.9929 H           1 DGX       0.0235
     67 H30       -11.3613   27.5461   31.0344 H           1 DGX       0.0235
     68 H31        -7.9510   24.0566   25.4349 H           1 DGX       0.0859
     69 H32        -8.8326   23.5019   23.9798 H           1 DGX       0.0859
     70 H33        -9.9187   20.8695   26.6578 H           1 DGX       0.0295
     71 H34       -17.1611   28.8427   31.4558 H           1 DGX       0.0910
     72 H35       -16.7358   31.8400   31.8410 H           1 DGX       0.0340
     73 H36       -15.9164   30.5527   32.7494 H           1 DGX       0.0340
     74 H37       -17.8814   31.6101   33.9674 H           1 DGX       0.0621
     75 H38       -18.2588   28.8783   33.3427 H           1 DGX       0.2099
     76 H39       -19.4128   32.0767   32.1704 H           1 DGX       0.0645
     77 H40       -20.3718   31.5449   34.0936 H           1 DGX       0.2100
     78 H41       -19.6196   29.0597   31.6096 H           1 DGX       0.0621
     79 H42       -20.8331   29.7710   29.5626 H           1 DGX       0.0255
     80 H43       -20.7556   31.4622   30.0917 H           1 DGX       0.0255
     81 H44       -21.6844   30.2740   31.0311 H           1 DGX       0.0255
@<TRIPOS>BOND
     1    11     1   1
     2     1     2   1
     3     2     3   1
     4     3     5   1
     5     3     4   1
     6     4    29   1
     7    29    36   1
     8    29    30   1
     9    30    31   1
    10    31    33   1
    11    31    32   1
    12    33    35   1
    13    33    34   1
    14    35    37   1
    15    36    35   1
    16     5     6   1
    17    11     6   1
    18     6     7   1
    19     7     8   1
    20     8     9   1
    21     9    16   1
    22     9    10   1
    23    10    12   1
    24    10    11   1
    25    11    22   1
    26    12    13   1
    27    13    15   1
    28    13    14   1
    29    15    21   1
    30    15    20   1
    31    15    16   1
    32    16    18   1
    33    16    17   1
    34    18    19   1
    35    20    19   1
    36    20    23   1
    37    23    26   2
    38    23    24   1
    39    24    25   1
    40    25    27   1
    41    27    28   2
    42    27    26   1
    43     1    38   1
    44     1    39   1
    45     2    40   1
    46     2    41   1
    47     3    42   1
    48     5    43   1
    49     5    44   1
    50     6    45   1
    51     7    46   1
    52     7    47   1
    53     8    48   1
    54     8    49   1
    55     9    50   1
    56    10    51   1
    57    12    52   1
    58    12    53   1
    59    13    54   1
    60    14    55   1
    61    17    56   1
    62    18    57   1
    63    18    58   1
    64    19    59   1
    65    19    60   1
    66    20    61   1
    67    21    62   1
    68    21    63   1
    69    21    64   1
    70    22    65   1
    71    22    66   1
    72    22    67   1
    73    24    68   1
    74    24    69   1
    75    26    70   1
    76    29    71   1
    77    30    72   1
    78    30    73   1
    79    31    74   1
    80    32    75   1
    81    33    76   1
    82    34    77   1
    83    35    78   1
    84    37    79   1
    85    37    80   1
    86    37    81   1
@<TRIPOS>SUBSTRUCTURE
     1  DGX      1

