@<TRIPOS>MOLECULE
1igj_ligand_002
    81    86
SMALL
GAST_HUCK
****
This file was generated by PARSER (from files_GN.cpp)

@<TRIPOS>ATOM
      1 C1        -14.7534   29.6731   28.3065 C.3         1 DGX      -0.0448
      2 C2        -15.9915   29.0075   28.9625 C.3         1 DGX      -0.0260
      3 C3        -15.9717   29.1794   30.5033 C.3         1 DGX       0.0620
      4 O3        -16.1498   30.5423   30.9621 O.3         1 DGX      -0.3480
      5 C4        -14.6322   28.6428   31.0749 C.3         1 DGX      -0.0232
      6 C5        -13.3559   29.2420   30.3840 C.3         1 DGX      -0.0330
      7 C6        -12.0535   28.6560   31.0077 C.3         1 DGX      -0.0493
      8 C7        -11.7833   27.1935   30.5800 C.3         1 DGX      -0.0470
      9 C8        -11.8008   26.9763   29.0346 C.3         1 DGX      -0.0079
     10 C9        -13.0823   27.6100   28.3752 C.3         1 DGX      -0.0276
     11 C10       -13.3571   29.1254   28.8032 C.3         1 DGX      -0.0258
     12 C11       -13.0550   27.3546   26.8326 C.3         1 DGX      -0.0223
     13 C12       -12.9199   25.8474   26.4922 C.3         1 DGX       0.0664
     14 O12       -13.0182   25.6527   25.0804 O.3         1 DGX      -0.3909
     15 C13       -11.6366   25.1430   27.1007 C.3         1 DGX       0.0405
     16 C14       -11.5585   25.4546   28.6462 C.3         1 DGX       0.0799
     17 O14       -10.2625   25.0956   29.1605 O.3         1 DGX      -0.3874
     18 C15       -12.5408   24.4205   29.2639 C.3         1 DGX      -0.0200
     19 C16       -12.3050   23.1273   28.4608 C.3         1 DGX      -0.0318
     20 C17       -11.8575   23.5709   27.0341 C.3         1 DGX       0.0177
     21 C18       -10.3563   25.6470   26.3389 C.3         1 DGX      -0.0516
     22 C19       -12.2793   30.0945   28.1888 C.3         1 DGX      -0.0590
     23 C20       -10.7849   22.7443   26.4518 C.2         1 DGX      -0.0063
     24 C21       -10.8357   22.2163   25.1026 C.3         1 DGX       0.1204
     25 O21        -9.6007   21.5144   24.9982 O.3         1 DGX      -0.2665
     26 C22        -9.6200   22.4147   27.0088 C.2         1 DGX       0.0017
     27 C23        -8.9017   21.6586   26.1406 C.2         1 DGX       0.2187
     28 O23        -7.6798   21.1318   26.3653 O.2         1 DGX      -0.3870
     29 C1X       -17.3901   31.2488   30.7270 C.3         1 DGX       0.1624
     30 C2X       -18.6321   30.5637   31.3625 C.3         1 DGX       0.0270
     31 C3X       -19.8876   31.4648   31.2635 C.3         1 DGX       0.0881
     32 O3X       -20.3234   31.5223   29.9022 O.3         1 DGX      -0.3890
     33 C4X       -19.5945   32.8872   31.8164 C.3         1 DGX       0.1070
     34 O4X       -20.7308   33.7351   31.6287 O.3         1 DGX      -0.3867
     35 C5X       -18.3106   33.4807   31.1576 C.3         1 DGX       0.0871
     36 O5X       -17.2024   32.5611   31.3032 O.3         1 DGX      -0.3456
     37 C6X       -17.9148   34.8414   31.7774 C.3         1 DGX      -0.0361
     38 H1        -14.8531   29.5752   27.2285 H           1 DGX       0.0271
     39 H2        -14.8218   30.7463   28.5181 H           1 DGX       0.0271
     40 H3        -16.0159   27.9451   28.7155 H           1 DGX       0.0290
     41 H4        -16.9010   29.4438   28.5454 H           1 DGX       0.0290
     42 H5        -16.7577   28.5513   30.9287 H           1 DGX       0.0597
     43 H6        -14.6372   27.5554   30.9798 H           1 DGX       0.0293
     44 H7        -14.6001   28.8678   32.1425 H           1 DGX       0.0293
     45 H8        -13.3585   30.3066   30.6399 H           1 DGX       0.0307
     46 H9        -12.1128   28.6973   32.0973 H           1 DGX       0.0268
     47 H10       -11.1943   29.2688   30.7205 H           1 DGX       0.0268
     48 H11       -12.5232   26.5504   31.0561 H           1 DGX       0.0269
     49 H12       -10.8055   26.9092   30.9675 H           1 DGX       0.0269
     50 H13       -10.9355   27.5223   28.6416 H           1 DGX       0.0332
     51 H14       -13.9211   27.0289   28.7549 H           1 DGX       0.0310
     52 H15       -12.2416   27.9044   26.3607 H           1 DGX       0.0293
     53 H16       -13.9886   27.6950   26.3832 H           1 DGX       0.0293
     54 H17       -13.8199   25.3717   26.8961 H           1 DGX       0.0602
     55 H18       -12.2953   26.1809   24.6860 H           1 DGX       0.2098
     56 H19        -9.6303   25.7526   28.8066 H           1 DGX       0.2102
     57 H20       -13.5784   24.7474   29.1515 H           1 DGX       0.0295
     58 H21       -12.3522   24.2569   30.3268 H           1 DGX       0.0295
     59 H22       -13.2254   22.5328   28.4295 H           1 DGX       0.0301
     60 H23       -11.5352   22.5430   28.9667 H           1 DGX       0.0301
     61 H24       -12.7263   23.3691   26.3960 H           1 DGX       0.0550
     62 H25       -10.4144   25.4013   25.2799 H           1 DGX       0.0239
     63 H26        -9.4510   25.1874   26.7305 H           1 DGX       0.0239
     64 H27       -10.2298   26.7233   26.4321 H           1 DGX       0.0239
     65 H28       -12.4028   31.1097   28.5729 H           1 DGX       0.0235
     66 H29       -12.3661   30.1470   27.1024 H           1 DGX       0.0235
     67 H30       -11.2630   29.7837   28.4220 H           1 DGX       0.0235
     68 H31       -10.8736   23.0214   24.3668 H           1 DGX       0.0859
     69 H32       -11.6755   21.5350   24.9635 H           1 DGX       0.0859
     70 H33        -9.3016   22.6856   27.9100 H           1 DGX       0.0295
     71 H34       -17.5423   31.3647   29.6484 H           1 DGX       0.0910
     72 H35       -18.4205   30.3483   32.4103 H           1 DGX       0.0340
     73 H36       -18.8483   29.6183   30.8615 H           1 DGX       0.0340
     74 H37       -20.6947   31.0097   31.8427 H           1 DGX       0.0621
     75 H38       -21.2022   31.9573   29.9250 H           1 DGX       0.2099
     76 H39       -19.4276   32.8018   32.8943 H           1 DGX       0.0645
     77 H40       -20.8374   33.8213   30.6575 H           1 DGX       0.2100
     78 H41       -18.4964   33.6455   30.0893 H           1 DGX       0.0621
     79 H42       -17.0309   35.2366   31.2738 H           1 DGX       0.0255
     80 H43       -17.6928   34.7326   32.8398 H           1 DGX       0.0255
     81 H44       -18.7279   35.5615   31.6601 H           1 DGX       0.0255
@<TRIPOS>BOND
     1    11     1   1
     2     1     2   1
     3     2     3   1
     4     3     5   1
     5     3     4   1
     6     4    29   1
     7    29    36   1
     8    29    30   1
     9    30    31   1
    10    31    33   1
    11    31    32   1
    12    33    35   1
    13    33    34   1
    14    35    37   1
    15    36    35   1
    16     5     6   1
    17    11     6   1
    18     6     7   1
    19     7     8   1
    20     8     9   1
    21     9    16   1
    22     9    10   1
    23    10    12   1
    24    10    11   1
    25    11    22   1
    26    12    13   1
    27    13    15   1
    28    13    14   1
    29    15    21   1
    30    15    20   1
    31    15    16   1
    32    16    18   1
    33    16    17   1
    34    18    19   1
    35    20    19   1
    36    20    23   1
    37    23    26   2
    38    23    24   1
    39    24    25   1
    40    25    27   1
    41    27    28   2
    42    27    26   1
    43     1    38   1
    44     1    39   1
    45     2    40   1
    46     2    41   1
    47     3    42   1
    48     5    43   1
    49     5    44   1
    50     6    45   1
    51     7    46   1
    52     7    47   1
    53     8    48   1
    54     8    49   1
    55     9    50   1
    56    10    51   1
    57    12    52   1
    58    12    53   1
    59    13    54   1
    60    14    55   1
    61    17    56   1
    62    18    57   1
    63    18    58   1
    64    19    59   1
    65    19    60   1
    66    20    61   1
    67    21    62   1
    68    21    63   1
    69    21    64   1
    70    22    65   1
    71    22    66   1
    72    22    67   1
    73    24    68   1
    74    24    69   1
    75    26    70   1
    76    29    71   1
    77    30    72   1
    78    30    73   1
    79    31    74   1
    80    32    75   1
    81    33    76   1
    82    34    77   1
    83    35    78   1
    84    37    79   1
    85    37    80   1
    86    37    81   1
@<TRIPOS>SUBSTRUCTURE
     1  DGX      1

