@<TRIPOS>MOLECULE
1igj_ligand_075
    81    86
SMALL
GAST_HUCK
****
This file was generated by PARSER (from files_GN.cpp)

@<TRIPOS>ATOM
      1 C1        -14.5057   24.4114   28.3504 C.3         1 DGX      -0.0448
      2 C2        -14.7292   25.5601   27.3384 C.3         1 DGX      -0.0260
      3 C3        -13.7382   26.7450   27.4713 C.3         1 DGX       0.0620
      4 O3        -12.5336   26.7338   26.6660 O.3         1 DGX      -0.3480
      5 C4        -13.5805   27.1720   28.9554 C.3         1 DGX      -0.0232
      6 C5        -13.4324   26.0186   30.0082 C.3         1 DGX      -0.0330
      7 C6        -13.3587   26.6056   31.4477 C.3         1 DGX      -0.0493
      8 C7        -14.7393   27.0094   32.0079 C.3         1 DGX      -0.0470
      9 C8        -15.7593   25.8302   31.9670 C.3         1 DGX      -0.0079
     10 C9        -15.8598   25.2233   30.5115 C.3         1 DGX      -0.0276
     11 C10       -14.4522   24.8133   29.8784 C.3         1 DGX      -0.0258
     12 C11       -16.9221   24.0756   30.5148 C.3         1 DGX      -0.0223
     13 C12       -18.2898   24.4891   31.1222 C.3         1 DGX       0.0664
     14 O12       -19.1762   23.3741   31.0528 O.3         1 DGX      -0.3909
     15 C13       -18.2166   25.0694   32.5897 C.3         1 DGX       0.0405
     16 C14       -17.1373   26.2090   32.6395 C.3         1 DGX       0.0799
     17 O14       -16.8678   26.5285   34.0135 O.3         1 DGX      -0.3874
     18 C15       -17.8739   27.4383   32.0385 C.3         1 DGX      -0.0200
     19 C16       -19.3396   27.3148   32.4995 C.3         1 DGX      -0.0318
     20 C17       -19.5745   25.8263   32.8995 C.3         1 DGX       0.0177
     21 C18       -17.8927   23.8956   33.5901 C.3         1 DGX      -0.0516
     22 C19       -13.8665   23.5397   30.6026 C.3         1 DGX      -0.0590
     23 C20       -20.1585   25.6598   34.2401 C.2         1 DGX      -0.0063
     24 C21       -21.3040   24.8130   34.5248 C.3         1 DGX       0.1204
     25 O21       -21.4362   24.9350   35.9412 O.3         1 DGX      -0.2665
     26 C22       -19.7209   26.1998   35.3821 C.2         1 DGX       0.0017
     27 C23       -20.4816   25.7622   36.4138 C.2         1 DGX       0.2187
     28 O23       -20.3110   26.0887   37.7124 O.2         1 DGX      -0.3870
     29 C1X       -11.4326   25.8100   26.5499 C.3         1 DGX       0.1624
     30 C2X       -10.3581   25.9652   27.6561 C.3         1 DGX       0.0270
     31 C3X        -9.2019   24.9581   27.4456 C.3         1 DGX       0.0881
     32 O3X        -8.4298   25.3737   26.3246 O.3         1 DGX      -0.3890
     33 C4X        -9.7279   23.5105   27.2491 C.3         1 DGX       0.1070
     34 O4X        -8.6335   22.6479   26.9211 O.3         1 DGX      -0.3867
     35 C5X       -10.8170   23.4778   26.1318 C.3         1 DGX       0.0871
     36 O5X       -11.8630   24.4437   26.3949 O.3         1 DGX      -0.3456
     37 C6X       -11.4734   22.0869   25.9990 C.3         1 DGX      -0.0361
     38 H1        -15.2838   23.6630   28.1827 H           1 DGX       0.0271
     39 H2        -13.5707   23.9232   28.0783 H           1 DGX       0.0271
     40 H3        -15.7339   25.9446   27.5034 H           1 DGX       0.0290
     41 H4        -14.6887   25.1691   26.3194 H           1 DGX       0.0290
     42 H5        -14.2613   27.5833   26.9988 H           1 DGX       0.0597
     43 H6        -14.4636   27.7569   29.2240 H           1 DGX       0.0293
     44 H7        -12.7162   27.8440   29.0299 H           1 DGX       0.0293
     45 H8        -12.4526   25.5963   29.8249 H           1 DGX       0.0307
     46 H9        -12.6899   27.4716   31.4766 H           1 DGX       0.0268
     47 H10       -12.9246   25.8625   32.1078 H           1 DGX       0.0268
     48 H11       -15.1228   27.8695   31.4545 H           1 DGX       0.0269
     49 H12       -14.5808   27.3395   33.0372 H           1 DGX       0.0269
     50 H13       -15.3357   25.0572   32.6092 H           1 DGX       0.0332
     51 H14       -16.2660   26.0122   29.8731 H           1 DGX       0.0310
     52 H15       -16.5529   23.2083   31.0619 H           1 DGX       0.0293
     53 H16       -17.1111   23.7455   29.4888 H           1 DGX       0.0293
     54 H17       -18.7134   25.2403   30.4583 H           1 DGX       0.0602
     55 H18       -19.3179   23.2134   30.0953 H           1 DGX       0.2098
     56 H19       -16.4665   27.4202   34.0270 H           1 DGX       0.2102
     57 H20       -17.8306   27.4244   30.9452 H           1 DGX       0.0295
     58 H21       -17.4323   28.3828   32.3746 H           1 DGX       0.0295
     59 H22       -20.0096   27.6158   31.6918 H           1 DGX       0.0301
     60 H23       -19.5080   28.0034   33.3329 H           1 DGX       0.0301
     61 H24       -20.3448   25.4464   32.2162 H           1 DGX       0.0550
     62 H25       -18.6874   23.1483   33.5771 H           1 DGX       0.0239
     63 H26       -17.7986   24.2552   34.6139 H           1 DGX       0.0239
     64 H27       -16.9586   23.3976   33.3408 H           1 DGX       0.0239
     65 H28       -12.8330   23.3445   30.2964 H           1 DGX       0.0235
     66 H29       -14.4377   22.6420   30.3528 H           1 DGX       0.0235
     67 H30       -13.8735   23.6347   31.6867 H           1 DGX       0.0235
     68 H31       -21.1048   23.7741   34.2516 H           1 DGX       0.0859
     69 H32       -22.2056   25.1744   34.0232 H           1 DGX       0.0859
     70 H33       -18.9583   26.8281   35.4830 H           1 DGX       0.0295
     71 H34       -10.9627   26.1078   25.6106 H           1 DGX       0.0910
     72 H35       -10.7954   25.7504   28.6309 H           1 DGX       0.0340
     73 H36        -9.9651   26.9810   27.6738 H           1 DGX       0.0340
     74 H37        -8.5544   24.9835   28.3233 H           1 DGX       0.0621
     75 H38        -8.2208   24.5515   25.8362 H           1 DGX       0.2099
     76 H39       -10.1685   23.1557   28.1905 H           1 DGX       0.0645
     77 H40        -8.9413   21.7315   27.1010 H           1 DGX       0.2100
     78 H41       -10.3542   23.7172   25.1665 H           1 DGX       0.0621
     79 H42       -12.2230   22.1000   25.2016 H           1 DGX       0.0255
     80 H43       -11.9685   21.8134   26.9381 H           1 DGX       0.0255
     81 H44       -10.7348   21.3198   25.7540 H           1 DGX       0.0255
@<TRIPOS>BOND
     1    11     1   1
     2     1     2   1
     3     2     3   1
     4     3     5   1
     5     3     4   1
     6     4    29   1
     7    29    36   1
     8    29    30   1
     9    30    31   1
    10    31    33   1
    11    31    32   1
    12    33    35   1
    13    33    34   1
    14    35    37   1
    15    36    35   1
    16     5     6   1
    17    11     6   1
    18     6     7   1
    19     7     8   1
    20     8     9   1
    21     9    16   1
    22     9    10   1
    23    10    12   1
    24    10    11   1
    25    11    22   1
    26    12    13   1
    27    13    15   1
    28    13    14   1
    29    15    21   1
    30    15    20   1
    31    15    16   1
    32    16    18   1
    33    16    17   1
    34    18    19   1
    35    20    19   1
    36    20    23   1
    37    23    26   2
    38    23    24   1
    39    24    25   1
    40    25    27   1
    41    27    28   2
    42    27    26   1
    43     1    38   1
    44     1    39   1
    45     2    40   1
    46     2    41   1
    47     3    42   1
    48     5    43   1
    49     5    44   1
    50     6    45   1
    51     7    46   1
    52     7    47   1
    53     8    48   1
    54     8    49   1
    55     9    50   1
    56    10    51   1
    57    12    52   1
    58    12    53   1
    59    13    54   1
    60    14    55   1
    61    17    56   1
    62    18    57   1
    63    18    58   1
    64    19    59   1
    65    19    60   1
    66    20    61   1
    67    21    62   1
    68    21    63   1
    69    21    64   1
    70    22    65   1
    71    22    66   1
    72    22    67   1
    73    24    68   1
    74    24    69   1
    75    26    70   1
    76    29    71   1
    77    30    72   1
    78    30    73   1
    79    31    74   1
    80    32    75   1
    81    33    76   1
    82    34    77   1
    83    35    78   1
    84    37    79   1
    85    37    80   1
    86    37    81   1
@<TRIPOS>SUBSTRUCTURE
     1  DGX      1

