@<TRIPOS>MOLECULE
1igj_ligand_038
    81    86
SMALL
GAST_HUCK
****
This file was generated by PARSER (from files_GN.cpp)

@<TRIPOS>ATOM
      1 C1        -14.0285   26.7214   30.2173 C.3         1 DGX      -0.0448
      2 C2        -12.7938   25.7834   30.1861 C.3         1 DGX      -0.0260
      3 C3        -13.0514   24.5445   29.2852 C.3         1 DGX       0.0620
      4 O3        -13.1489   24.9428   27.8924 O.3         1 DGX      -0.3480
      5 C4        -14.3509   23.8218   29.7406 C.3         1 DGX      -0.0232
      6 C5        -15.6054   24.7529   29.9051 C.3         1 DGX      -0.0330
      7 C6        -16.8356   23.9440   30.4295 C.3         1 DGX      -0.0493
      8 C7        -16.7410   23.5789   31.9300 C.3         1 DGX      -0.0470
      9 C8        -16.4612   24.8140   32.8480 C.3         1 DGX      -0.0079
     10 C9        -15.2331   25.6406   32.3163 C.3         1 DGX      -0.0276
     11 C10       -15.3439   26.0497   30.7785 C.3         1 DGX      -0.0258
     12 C11       -14.9148   26.8269   33.2806 C.3         1 DGX      -0.0223
     13 C12       -14.7323   26.3762   34.7501 C.3         1 DGX       0.0664
     14 O12       -14.3920   27.5359   35.5172 O.3         1 DGX      -0.3909
     15 C13       -15.9709   25.5890   35.3455 C.3         1 DGX       0.0405
     16 C14       -16.3609   24.4105   34.3745 C.3         1 DGX       0.0799
     17 O14       -17.6602   23.9204   34.7498 O.3         1 DGX      -0.3874
     18 C15       -15.3365   23.2869   34.7168 C.3         1 DGX      -0.0200
     19 C16       -14.8911   23.5005   36.1808 C.3         1 DGX      -0.0318
     20 C17       -15.5249   24.8399   36.6647 C.3         1 DGX       0.0177
     21 C18       -17.1561   26.5998   35.5635 C.3         1 DGX      -0.0516
     22 C19       -16.4811   27.1110   30.5318 C.3         1 DGX      -0.0590
     23 C20       -16.5311   24.6708   37.7283 C.2         1 DGX      -0.0063
     24 C21       -16.6064   25.5177   38.9023 C.3         1 DGX       0.1204
     25 O21       -17.7162   24.9720   39.6147 O.3         1 DGX      -0.2665
     26 C22       -17.5095   23.7552   37.7902 C.2         1 DGX       0.0017
     27 C23       -18.2207   23.9338   38.9260 C.2         1 DGX       0.2187
     28 O23       -19.2710   23.1785   39.3252 O.2         1 DGX      -0.3870
     29 C1X       -11.9962   24.8549   27.0129 C.3         1 DGX       0.1624
     30 C2X       -10.6958   25.5291   27.5477 C.3         1 DGX       0.0270
     31 C3X        -9.4909   25.3177   26.5945 C.3         1 DGX       0.0881
     32 O3X        -9.5981   26.1621   25.4395 O.3         1 DGX      -0.3890
     33 C4X        -9.3517   23.8175   26.2062 C.3         1 DGX       0.1070
     34 O4X        -8.2977   23.6841   25.2462 O.3         1 DGX      -0.3867
     35 C5X       -10.7108   23.2704   25.6743 C.3         1 DGX       0.0871
     36 O5X       -11.7510   23.4731   26.6626 O.3         1 DGX      -0.3456
     37 C6X       -10.6551   21.7668   25.3239 C.3         1 DGX      -0.0361
     38 H1        -13.7689   27.6152   30.7874 H           1 DGX       0.0271
     39 H2        -14.1994   27.0677   29.1890 H           1 DGX       0.0271
     40 H3        -12.5446   25.4559   31.1947 H           1 DGX       0.0290
     41 H4        -11.9384   26.3501   29.8195 H           1 DGX       0.0290
     42 H5        -12.2269   23.8335   29.4191 H           1 DGX       0.0597
     43 H6        -14.1339   23.3269   30.6887 H           1 DGX       0.0293
     44 H7        -14.5811   23.0350   29.0156 H           1 DGX       0.0293
     45 H8        -15.8585   25.0778   28.8887 H           1 DGX       0.0307
     46 H9        -16.9520   23.0266   29.8445 H           1 DGX       0.0268
     47 H10       -17.7485   24.5249   30.2814 H           1 DGX       0.0268
     48 H11       -15.9624   22.8265   32.0595 H           1 DGX       0.0269
     49 H12       -17.6873   23.1124   32.2117 H           1 DGX       0.0269
     50 H13       -17.3400   25.4603   32.7695 H           1 DGX       0.0332
     51 H14       -14.3820   24.9697   32.4013 H           1 DGX       0.0310
     52 H15       -15.6954   27.5850   33.2298 H           1 DGX       0.0293
     53 H16       -13.9779   27.3017   32.9855 H           1 DGX       0.0293
     54 H17       -13.8449   25.7377   34.7727 H           1 DGX       0.0602
     55 H18       -14.0345   27.2044   36.3676 H           1 DGX       0.2098
     56 H19       -17.7903   23.0749   34.2708 H           1 DGX       0.2102
     57 H20       -14.4626   23.3385   34.0663 H           1 DGX       0.0295
     58 H21       -15.7791   22.2967   34.5884 H           1 DGX       0.0295
     59 H22       -13.7988   23.5636   36.2207 H           1 DGX       0.0301
     60 H23       -15.1807   22.6425   36.7951 H           1 DGX       0.0301
     61 H24       -14.7190   25.4088   37.1340 H           1 DGX       0.0550
     62 H25       -16.8628   27.3944   36.2485 H           1 DGX       0.0239
     63 H26       -18.0326   26.1079   35.9845 H           1 DGX       0.0239
     64 H27       -17.4685   27.0596   34.6282 H           1 DGX       0.0239
     65 H28       -16.5887   27.3178   29.4654 H           1 DGX       0.0235
     66 H29       -16.2484   28.0595   31.0182 H           1 DGX       0.0235
     67 H30       -17.4501   26.7784   30.8979 H           1 DGX       0.0235
     68 H31       -16.8043   26.5571   38.6353 H           1 DGX       0.0859
     69 H32       -15.6978   25.4494   39.5036 H           1 DGX       0.0859
     70 H33       -17.6805   23.0330   37.1383 H           1 DGX       0.0295
     71 H34       -12.3042   25.3856   26.1051 H           1 DGX       0.0910
     72 H35       -10.4254   25.0865   28.5098 H           1 DGX       0.0340
     73 H36       -10.8635   26.6011   27.6945 H           1 DGX       0.0340
     74 H37        -8.5733   25.6201   27.1139 H           1 DGX       0.0621
     75 H38       -10.4451   25.9223   25.0104 H           1 DGX       0.2099
     76 H39        -9.0677   23.2517   27.1022 H           1 DGX       0.0645
     77 H40        -8.1195   22.7235   25.1857 H           1 DGX       0.2100
     78 H41       -10.9699   23.7982   24.7551 H           1 DGX       0.0621
     79 H42       -11.6041   21.4575   24.8792 H           1 DGX       0.0255
     80 H43       -10.4695   21.1660   26.2184 H           1 DGX       0.0255
     81 H44        -9.8630   21.5687   24.5955 H           1 DGX       0.0255
@<TRIPOS>BOND
     1    11     1   1
     2     1     2   1
     3     2     3   1
     4     3     5   1
     5     3     4   1
     6     4    29   1
     7    29    36   1
     8    29    30   1
     9    30    31   1
    10    31    33   1
    11    31    32   1
    12    33    35   1
    13    33    34   1
    14    35    37   1
    15    36    35   1
    16     5     6   1
    17    11     6   1
    18     6     7   1
    19     7     8   1
    20     8     9   1
    21     9    16   1
    22     9    10   1
    23    10    12   1
    24    10    11   1
    25    11    22   1
    26    12    13   1
    27    13    15   1
    28    13    14   1
    29    15    21   1
    30    15    20   1
    31    15    16   1
    32    16    18   1
    33    16    17   1
    34    18    19   1
    35    20    19   1
    36    20    23   1
    37    23    26   2
    38    23    24   1
    39    24    25   1
    40    25    27   1
    41    27    28   2
    42    27    26   1
    43     1    38   1
    44     1    39   1
    45     2    40   1
    46     2    41   1
    47     3    42   1
    48     5    43   1
    49     5    44   1
    50     6    45   1
    51     7    46   1
    52     7    47   1
    53     8    48   1
    54     8    49   1
    55     9    50   1
    56    10    51   1
    57    12    52   1
    58    12    53   1
    59    13    54   1
    60    14    55   1
    61    17    56   1
    62    18    57   1
    63    18    58   1
    64    19    59   1
    65    19    60   1
    66    20    61   1
    67    21    62   1
    68    21    63   1
    69    21    64   1
    70    22    65   1
    71    22    66   1
    72    22    67   1
    73    24    68   1
    74    24    69   1
    75    26    70   1
    76    29    71   1
    77    30    72   1
    78    30    73   1
    79    31    74   1
    80    32    75   1
    81    33    76   1
    82    34    77   1
    83    35    78   1
    84    37    79   1
    85    37    80   1
    86    37    81   1
@<TRIPOS>SUBSTRUCTURE
     1  DGX      1

