@<TRIPOS>MOLECULE
1igj_ligand_012
    81    86
SMALL
GAST_HUCK
****
This file was generated by PARSER (from files_GN.cpp)

@<TRIPOS>ATOM
      1 C1        -12.0829   27.5690   29.0974 C.3         1 DGX      -0.0448
      2 C2        -10.8711   26.7712   29.6373 C.3         1 DGX      -0.0260
      3 C3        -10.3719   25.7362   28.5903 C.3         1 DGX       0.0620
      4 O3         -9.9347   26.1846   27.2806 O.3         1 DGX      -0.3480
      5 C4        -11.5595   24.7603   28.3183 C.3         1 DGX      -0.0232
      6 C5        -12.8400   25.5084   27.7863 C.3         1 DGX      -0.0330
      7 C6        -13.9820   24.5105   27.4395 C.3         1 DGX      -0.0493
      8 C7        -14.7104   23.9620   28.6885 C.3         1 DGX      -0.0470
      9 C8        -15.2300   25.0863   29.6456 C.3         1 DGX      -0.0079
     10 C9        -14.0867   26.1029   29.9969 C.3         1 DGX      -0.0276
     11 C10       -13.3425   26.6969   28.7151 C.3         1 DGX      -0.0258
     12 C11       -14.6477   27.1856   30.9763 C.3         1 DGX      -0.0223
     13 C12       -15.2892   26.5678   32.2374 C.3         1 DGX       0.0664
     14 O12       -15.6745   27.6198   33.1307 O.3         1 DGX      -0.3909
     15 C13       -16.4753   25.5552   31.9576 C.3         1 DGX       0.0405
     16 C14       -16.0092   24.4906   30.8879 C.3         1 DGX       0.0799
     17 O14       -17.1458   23.8118   30.3258 O.3         1 DGX      -0.3874
     18 C15       -15.2383   23.4378   31.7273 C.3         1 DGX      -0.0200
     19 C16       -16.0033   23.3380   33.0609 C.3         1 DGX      -0.0318
     20 C17       -16.7265   24.7013   33.2752 C.3         1 DGX       0.0177
     21 C18       -17.7403   26.3542   31.4661 C.3         1 DGX      -0.0516
     22 C19       -14.2787   27.6603   27.8819 C.3         1 DGX      -0.0590
     23 C20       -18.1028   24.5713   33.7839 C.2         1 DGX      -0.0063
     24 C21       -18.6924   25.5013   34.7282 C.3         1 DGX       0.1204
     25 O21       -20.0053   24.9741   34.9112 O.3         1 DGX      -0.2665
     26 C22       -19.0064   23.6369   33.4718 C.2         1 DGX       0.0017
     27 C23       -20.1545   23.8768   34.1470 C.2         1 DGX       0.2187
     28 O23       -21.2738   23.1176   34.0978 O.2         1 DGX      -0.3870
     29 C1X        -9.3570   27.4407   26.8672 C.3         1 DGX       0.1624
     30 C2X        -9.9928   27.7122   25.4696 C.3         1 DGX       0.0270
     31 C3X        -9.8560   29.1860   25.0043 C.3         1 DGX       0.0881
     32 O3X        -8.5173   29.4466   24.5845 O.3         1 DGX      -0.3890
     33 C4X       -10.2861   30.1520   26.1417 C.3         1 DGX       0.1070
     34 O4X       -10.1910   31.5066   25.7070 O.3         1 DGX      -0.3867
     35 C5X        -9.4402   29.8806   27.4170 C.3         1 DGX       0.0871
     36 O5X        -9.5820   28.4988   27.8222 O.3         1 DGX      -0.3456
     37 C6X        -9.8926   30.7435   28.6204 C.3         1 DGX      -0.0361
     38 H1        -12.3367   28.3432   29.8202 H           1 DGX       0.0271
     39 H2        -11.7432   28.1031   28.2105 H           1 DGX       0.0271
     40 H3        -11.1602   26.2532   30.5572 H           1 DGX       0.0290
     41 H4        -10.0740   27.4456   29.9275 H           1 DGX       0.0290
     42 H5         -9.5404   25.1743   29.0345 H           1 DGX       0.0597
     43 H6        -11.7873   24.2143   29.2395 H           1 DGX       0.0293
     44 H7        -11.2350   24.0160   27.5860 H           1 DGX       0.0293
     45 H8        -12.5349   25.9386   26.8286 H           1 DGX       0.0307
     46 H9        -13.5804   23.6687   26.8679 H           1 DGX       0.0268
     47 H10       -14.7126   25.0023   26.7973 H           1 DGX       0.0268
     48 H11       -14.0276   23.2969   29.2235 H           1 DGX       0.0269
     49 H12       -15.5544   23.3518   28.3452 H           1 DGX       0.0269
     50 H13       -15.9766   25.6473   29.0780 H           1 DGX       0.0332
     51 H14       -13.3472   25.5414   30.5650 H           1 DGX       0.0310
     52 H15       -15.3798   27.8176   30.4738 H           1 DGX       0.0293
     53 H16       -13.8435   27.8318   31.3257 H           1 DGX       0.0293
     54 H17       -14.4845   26.0387   32.7558 H           1 DGX       0.0602
     55 H18       -16.1610   28.2714   32.5876 H           1 DGX       0.2098
     56 H19       -17.7237   23.5745   31.0735 H           1 DGX       0.2102
     57 H20       -14.2113   23.7587   31.9167 H           1 DGX       0.0295
     58 H21       -15.1999   22.4627   31.2294 H           1 DGX       0.0295
     59 H22       -15.3078   23.1228   33.8763 H           1 DGX       0.0301
     60 H23       -16.7109   22.5086   32.9998 H           1 DGX       0.0301
     61 H24       -16.1837   25.1813   34.0976 H           1 DGX       0.0550
     62 H25       -18.0803   27.0520   32.2316 H           1 DGX       0.0239
     63 H26       -18.5719   25.6887   31.2431 H           1 DGX       0.0239
     64 H27       -17.5305   26.9207   30.5617 H           1 DGX       0.0239
     65 H28       -13.7975   27.9692   26.9486 H           1 DGX       0.0235
     66 H29       -14.5060   28.5729   28.4368 H           1 DGX       0.0235
     67 H30       -15.2233   27.1946   27.6112 H           1 DGX       0.0235
     68 H31       -18.7412   26.5129   34.3187 H           1 DGX       0.0859
     69 H32       -18.1512   25.5029   35.6761 H           1 DGX       0.0859
     70 H33       -18.8782   22.8795   32.8520 H           1 DGX       0.0295
     71 H34        -8.2757   27.3095   26.7554 H           1 DGX       0.0910
     72 H35       -11.0633   27.4745   25.5007 H           1 DGX       0.0340
     73 H36        -9.5411   27.0498   24.7205 H           1 DGX       0.0340
     74 H37       -10.5082   29.3422   24.1378 H           1 DGX       0.0621
     75 H38        -8.6043   29.6658   23.6302 H           1 DGX       0.2099
     76 H39       -11.3395   29.9671   26.3690 H           1 DGX       0.0645
     77 H40        -9.2691   31.6246   25.4034 H           1 DGX       0.2100
     78 H41        -8.3822   30.0910   27.2124 H           1 DGX       0.0621
     79 H42        -9.2532   30.5377   29.4822 H           1 DGX       0.0255
     80 H43       -10.9243   30.5123   28.8905 H           1 DGX       0.0255
     81 H44        -9.8262   31.8074   28.3888 H           1 DGX       0.0255
@<TRIPOS>BOND
     1    11     1   1
     2     1     2   1
     3     2     3   1
     4     3     5   1
     5     3     4   1
     6     4    29   1
     7    29    36   1
     8    29    30   1
     9    30    31   1
    10    31    33   1
    11    31    32   1
    12    33    35   1
    13    33    34   1
    14    35    37   1
    15    36    35   1
    16     5     6   1
    17    11     6   1
    18     6     7   1
    19     7     8   1
    20     8     9   1
    21     9    16   1
    22     9    10   1
    23    10    12   1
    24    10    11   1
    25    11    22   1
    26    12    13   1
    27    13    15   1
    28    13    14   1
    29    15    21   1
    30    15    20   1
    31    15    16   1
    32    16    18   1
    33    16    17   1
    34    18    19   1
    35    20    19   1
    36    20    23   1
    37    23    26   2
    38    23    24   1
    39    24    25   1
    40    25    27   1
    41    27    28   2
    42    27    26   1
    43     1    38   1
    44     1    39   1
    45     2    40   1
    46     2    41   1
    47     3    42   1
    48     5    43   1
    49     5    44   1
    50     6    45   1
    51     7    46   1
    52     7    47   1
    53     8    48   1
    54     8    49   1
    55     9    50   1
    56    10    51   1
    57    12    52   1
    58    12    53   1
    59    13    54   1
    60    14    55   1
    61    17    56   1
    62    18    57   1
    63    18    58   1
    64    19    59   1
    65    19    60   1
    66    20    61   1
    67    21    62   1
    68    21    63   1
    69    21    64   1
    70    22    65   1
    71    22    66   1
    72    22    67   1
    73    24    68   1
    74    24    69   1
    75    26    70   1
    76    29    71   1
    77    30    72   1
    78    30    73   1
    79    31    74   1
    80    32    75   1
    81    33    76   1
    82    34    77   1
    83    35    78   1
    84    37    79   1
    85    37    80   1
    86    37    81   1
@<TRIPOS>SUBSTRUCTURE
     1  DGX      1

