@<TRIPOS>MOLECULE
1igj_ligand_024
    81    86
SMALL
GAST_HUCK
****
This file was generated by PARSER (from files_GN.cpp)

@<TRIPOS>ATOM
      1 C1        -14.9025   27.1130   30.9745 C.3         1 DGX      -0.0448
      2 C2        -14.0395   27.4058   32.2291 C.3         1 DGX      -0.0260
      3 C3        -13.6863   28.9183   32.3049 C.3         1 DGX       0.0620
      4 O3        -14.8509   29.7737   32.4618 O.3         1 DGX      -0.3480
      5 C4        -12.9484   29.3358   31.0043 C.3         1 DGX      -0.0232
      6 C5        -13.7451   28.9992   29.6972 C.3         1 DGX      -0.0330
      7 C6        -12.9523   29.4557   28.4327 C.3         1 DGX      -0.0493
      8 C7        -11.7586   28.5271   28.1006 C.3         1 DGX      -0.0470
      9 C8        -12.1624   27.0215   27.9757 C.3         1 DGX      -0.0079
     10 C9        -12.9734   26.5507   29.2427 C.3         1 DGX      -0.0276
     11 C10       -14.2182   27.4879   29.5985 C.3         1 DGX      -0.0258
     12 C11       -13.3168   25.0315   29.1078 C.3         1 DGX      -0.0223
     13 C12       -12.0723   24.1569   28.8231 C.3         1 DGX       0.0664
     14 O12       -12.4564   22.7781   28.8022 O.3         1 DGX      -0.3909
     15 C13       -11.2426   24.5658   27.5377 C.3         1 DGX       0.0405
     16 C14       -10.9313   26.1099   27.5883 C.3         1 DGX       0.0799
     17 O14       -10.4942   26.5874   26.3028 O.3         1 DGX      -0.3874
     18 C15        -9.6980   26.1979   28.5249 C.3         1 DGX      -0.0200
     19 C16        -8.8477   24.9581   28.1871 C.3         1 DGX      -0.0318
     20 C17        -9.8147   23.8762   27.6175 C.3         1 DGX       0.0177
     21 C18       -12.0594   24.1782   26.2519 C.3         1 DGX      -0.0516
     22 C19       -15.3553   27.3687   28.5167 C.3         1 DGX      -0.0590
     23 C20        -9.2963   23.1744   26.4242 C.2         1 DGX      -0.0063
     24 C21        -9.1842   21.7282   26.3310 C.3         1 DGX       0.1204
     25 O21        -8.6308   21.5373   25.0312 O.3         1 DGX      -0.2665
     26 C22        -8.8587   23.7134   25.2837 C.2         1 DGX       0.0017
     27 C23        -8.4496   22.7357   24.4430 C.2         1 DGX       0.2187
     28 O23        -7.8997   22.9222   23.2259 O.2         1 DGX      -0.3870
     29 C1X       -15.4249   29.9315   33.7797 C.3         1 DGX       0.1624
     30 C2X       -16.4632   31.0844   33.7363 C.3         1 DGX       0.0270
     31 C3X       -17.1976   31.2282   35.0949 C.3         1 DGX       0.0881
     32 O3X       -16.3023   31.7557   36.0755 O.3         1 DGX      -0.3890
     33 C4X       -17.7724   29.8626   35.5632 C.3         1 DGX       0.1070
     34 O4X       -18.3210   29.9756   36.8777 O.3         1 DGX      -0.3867
     35 C5X       -16.6853   28.7501   35.5071 C.3         1 DGX       0.0871
     36 O5X       -16.0827   28.7173   34.1957 O.3         1 DGX      -0.3456
     37 C6X       -17.2577   27.3429   35.7939 C.3         1 DGX      -0.0361
     38 H1        -15.2024   26.0641   30.9865 H           1 DGX       0.0271
     39 H2        -15.8322   27.6827   31.0859 H           1 DGX       0.0271
     40 H3        -13.1291   26.8075   32.2041 H           1 DGX       0.0290
     41 H4        -14.5855   27.0875   33.1159 H           1 DGX       0.0290
     42 H5        -12.9943   29.0773   33.1398 H           1 DGX       0.0597
     43 H6        -11.9726   28.8467   30.9974 H           1 DGX       0.0293
     44 H7        -12.7625   30.4134   31.0507 H           1 DGX       0.0293
     45 H8        -14.6363   29.6367   29.7390 H           1 DGX       0.0307
     46 H9        -12.5819   30.4775   28.5706 H           1 DGX       0.0268
     47 H10       -13.6253   29.4845   27.5733 H           1 DGX       0.0268
     48 H11       -10.9969   28.6482   28.8722 H           1 DGX       0.0269
     49 H12       -11.3233   28.8743   27.1597 H           1 DGX       0.0269
     50 H13       -12.8436   26.9643   27.1244 H           1 DGX       0.0332
     51 H14       -12.2787   26.6190   30.0801 H           1 DGX       0.0310
     52 H15       -14.0497   24.8697   28.3188 H           1 DGX       0.0293
     53 H16       -13.7509   24.6644   30.0380 H           1 DGX       0.0293
     54 H17       -11.4327   24.2522   29.7025 H           1 DGX       0.0602
     55 H18       -13.1423   22.7035   28.1059 H           1 DGX       0.2098
     56 H19        -9.6415   26.1477   26.1163 H           1 DGX       0.2102
     57 H20        -9.9942   26.1699   29.5737 H           1 DGX       0.0295
     58 H21        -9.1230   27.1121   28.3613 H           1 DGX       0.0295
     59 H22        -8.3296   24.6006   29.0814 H           1 DGX       0.0301
     60 H23        -8.0838   25.2466   27.4567 H           1 DGX       0.0301
     61 H24        -9.8555   23.0946   28.3830 H           1 DGX       0.0550
     62 H25       -12.2064   23.0974   26.1965 H           1 DGX       0.0239
     63 H26       -11.5392   24.4842   25.3448 H           1 DGX       0.0239
     64 H27       -13.0405   24.6524   26.2349 H           1 DGX       0.0239
     65 H28       -16.1495   28.0947   28.7037 H           1 DGX       0.0235
     66 H29       -15.8142   26.3802   28.5358 H           1 DGX       0.0235
     67 H30       -14.9960   27.5449   27.5041 H           1 DGX       0.0235
     68 H31       -10.1598   21.2410   26.4072 H           1 DGX       0.0859
     69 H32        -8.5022   21.3332   27.0863 H           1 DGX       0.0859
     70 H33        -8.8103   24.6780   25.0690 H           1 DGX       0.0295
     71 H34       -14.6332   30.1953   34.4870 H           1 DGX       0.0910
     72 H35       -17.2005   30.8751   32.9529 H           1 DGX       0.0340
     73 H36       -15.9684   32.0248   33.4846 H           1 DGX       0.0340
     74 H37       -18.0212   31.9366   34.9909 H           1 DGX       0.0621
     75 H38       -16.0482   32.6448   35.7399 H           1 DGX       0.2099
     76 H39       -18.5906   29.5863   34.8928 H           1 DGX       0.0645
     77 H40       -17.5607   30.1998   37.4553 H           1 DGX       0.2100
     78 H41       -15.9129   28.9581   36.2562 H           1 DGX       0.0621
     79 H42       -16.4631   26.5977   35.7217 H           1 DGX       0.0255
     80 H43       -18.0355   27.0942   35.0698 H           1 DGX       0.0255
     81 H44       -17.6831   27.2955   36.7992 H           1 DGX       0.0255
@<TRIPOS>BOND
     1    11     1   1
     2     1     2   1
     3     2     3   1
     4     3     5   1
     5     3     4   1
     6     4    29   1
     7    29    36   1
     8    29    30   1
     9    30    31   1
    10    31    33   1
    11    31    32   1
    12    33    35   1
    13    33    34   1
    14    35    37   1
    15    36    35   1
    16     5     6   1
    17    11     6   1
    18     6     7   1
    19     7     8   1
    20     8     9   1
    21     9    16   1
    22     9    10   1
    23    10    12   1
    24    10    11   1
    25    11    22   1
    26    12    13   1
    27    13    15   1
    28    13    14   1
    29    15    21   1
    30    15    20   1
    31    15    16   1
    32    16    18   1
    33    16    17   1
    34    18    19   1
    35    20    19   1
    36    20    23   1
    37    23    26   2
    38    23    24   1
    39    24    25   1
    40    25    27   1
    41    27    28   2
    42    27    26   1
    43     1    38   1
    44     1    39   1
    45     2    40   1
    46     2    41   1
    47     3    42   1
    48     5    43   1
    49     5    44   1
    50     6    45   1
    51     7    46   1
    52     7    47   1
    53     8    48   1
    54     8    49   1
    55     9    50   1
    56    10    51   1
    57    12    52   1
    58    12    53   1
    59    13    54   1
    60    14    55   1
    61    17    56   1
    62    18    57   1
    63    18    58   1
    64    19    59   1
    65    19    60   1
    66    20    61   1
    67    21    62   1
    68    21    63   1
    69    21    64   1
    70    22    65   1
    71    22    66   1
    72    22    67   1
    73    24    68   1
    74    24    69   1
    75    26    70   1
    76    29    71   1
    77    30    72   1
    78    30    73   1
    79    31    74   1
    80    32    75   1
    81    33    76   1
    82    34    77   1
    83    35    78   1
    84    37    79   1
    85    37    80   1
    86    37    81   1
@<TRIPOS>SUBSTRUCTURE
     1  DGX      1

