@<TRIPOS>MOLECULE
1igj_ligand_063
    81    86
SMALL
GAST_HUCK
****
This file was generated by PARSER (from files_GN.cpp)

@<TRIPOS>ATOM
      1 C1        -12.5226   31.7589   30.5522 C.3         1 DGX      -0.0448
      2 C2        -11.2480   32.3318   31.2288 C.3         1 DGX      -0.0260
      3 C3        -10.5361   33.3604   30.3115 C.3         1 DGX       0.0620
      4 O3        -11.4100   34.5092   30.1686 O.3         1 DGX      -0.3480
      5 C4        -10.1841   32.6358   28.9868 C.3         1 DGX      -0.0232
      6 C5        -11.4617   32.1097   28.2494 C.3         1 DGX      -0.0330
      7 C6        -11.0839   31.5433   26.8507 C.3         1 DGX      -0.0493
      8 C7        -10.3892   30.1667   26.9310 C.3         1 DGX      -0.0470
      9 C8        -11.2450   29.1217   27.7123 C.3         1 DGX      -0.0079
     10 C9        -11.6366   29.6630   29.1444 C.3         1 DGX      -0.0276
     11 C10       -12.3317   31.1051   29.1197 C.3         1 DGX      -0.0258
     12 C11       -12.4569   28.5635   29.8980 C.3         1 DGX      -0.0223
     13 C12       -11.7273   27.1974   29.9550 C.3         1 DGX       0.0664
     14 O12       -12.5106   26.2736   30.7172 O.3         1 DGX      -0.3909
     15 C13       -11.3584   26.5915   28.5402 C.3         1 DGX       0.0405
     16 C14       -10.6066   27.6765   27.6760 C.3         1 DGX       0.0799
     17 O14       -10.6113   27.2478   26.2978 O.3         1 DGX      -0.3874
     18 C15        -9.1377   27.5614   28.1560 C.3         1 DGX      -0.0200
     19 C16        -8.9141   26.0442   28.2557 C.3         1 DGX      -0.0318
     20 C17       -10.2706   25.4426   28.7363 C.3         1 DGX       0.0177
     21 C18       -12.6792   26.1311   27.8117 C.3         1 DGX      -0.0516
     22 C19       -13.7879   31.0093   28.5234 C.3         1 DGX      -0.0590
     23 C20       -10.5853   24.0939   28.2329 C.2         1 DGX      -0.0063
     24 C21        -9.9299   23.3701   27.1596 C.3         1 DGX       0.1204
     25 O21       -10.6180   22.1203   27.1560 O.3         1 DGX      -0.2665
     26 C22       -11.5260   23.3101   28.7671 C.2         1 DGX       0.0017
     27 C23       -11.5554   22.1240   28.1221 C.2         1 DGX       0.2187
     28 O23       -12.3512   21.0798   28.4402 O.2         1 DGX      -0.3870
     29 C1X       -11.0704   35.6896   29.4071 C.3         1 DGX       0.1624
     30 C2X        -9.8151   36.4403   29.9288 C.3         1 DGX       0.0270
     31 C3X        -9.5335   37.6999   29.0666 C.3         1 DGX       0.0881
     32 O3X       -10.5399   38.6903   29.2864 O.3         1 DGX      -0.3890
     33 C4X        -9.4635   37.3266   27.5594 C.3         1 DGX       0.1070
     34 O4X        -9.2983   38.5029   26.7651 O.3         1 DGX      -0.3867
     35 C5X       -10.7235   36.5185   27.1209 C.3         1 DGX       0.0871
     36 O5X       -10.9502   35.3931   27.9995 O.3         1 DGX      -0.3456
     37 C6X       -10.5933   35.9625   25.6827 C.3         1 DGX      -0.0361
     38 H1        -12.9872   31.0572   31.2445 H           1 DGX       0.0271
     39 H2        -13.2215   32.5984   30.4731 H           1 DGX       0.0271
     40 H3        -10.5664   31.5152   31.4806 H           1 DGX       0.0290
     41 H4        -11.5260   32.8220   32.1664 H           1 DGX       0.0290
     42 H5         -9.6132   33.6712   30.8086 H           1 DGX       0.0597
     43 H6         -9.5109   31.8070   29.2166 H           1 DGX       0.0293
     44 H7         -9.6234   33.3184   28.3475 H           1 DGX       0.0293
     45 H8        -12.0718   32.9955   28.0488 H           1 DGX       0.0307
     46 H9        -10.4290   32.2443   26.3247 H           1 DGX       0.0268
     47 H10       -11.9845   31.4451   26.2437 H           1 DGX       0.0268
     48 H11        -9.4113   30.2816   27.4019 H           1 DGX       0.0269
     49 H12       -10.2197   29.8280   25.9062 H           1 DGX       0.0269
     50 H13       -12.1714   29.0248   27.1440 H           1 DGX       0.0332
     51 H14       -10.7022   29.7719   29.6999 H           1 DGX       0.0310
     52 H15       -13.4316   28.4206   29.4313 H           1 DGX       0.0293
     53 H16       -12.6324   28.8758   30.9278 H           1 DGX       0.0293
     54 H17       -10.8158   27.3602   30.5390 H           1 DGX       0.0602
     55 H18       -12.7196   26.7327   31.5587 H           1 DGX       0.2098
     56 H19        -9.8904   27.7332   25.8463 H           1 DGX       0.2102
     57 H20        -8.9965   28.0313   29.1322 H           1 DGX       0.0295
     58 H21        -8.4324   28.0105   27.4508 H           1 DGX       0.0295
     59 H22        -8.0974   25.8138   28.9454 H           1 DGX       0.0301
     60 H23        -8.6274   25.6832   27.2648 H           1 DGX       0.0301
     61 H24       -10.1167   25.2766   29.8067 H           1 DGX       0.0550
     62 H25       -13.2689   25.4603   28.4367 H           1 DGX       0.0239
     63 H26       -12.4534   25.6027   26.8837 H           1 DGX       0.0239
     64 H27       -13.3138   26.9784   27.5549 H           1 DGX       0.0239
     65 H28       -14.1943   31.9992   28.3053 H           1 DGX       0.0235
     66 H29       -14.4721   30.5308   29.2270 H           1 DGX       0.0235
     67 H30       -13.8226   30.4368   27.6025 H           1 DGX       0.0235
     68 H31        -8.8732   23.2032   27.3760 H           1 DGX       0.0859
     69 H32       -10.0518   23.8775   26.2006 H           1 DGX       0.0859
     70 H33       -12.1042   23.5415   29.5400 H           1 DGX       0.0295
     71 H34       -11.9327   36.3502   29.5324 H           1 DGX       0.0910
     72 H35        -8.9456   35.7826   29.8764 H           1 DGX       0.0340
     73 H36        -9.9617   36.7285   30.9727 H           1 DGX       0.0340
     74 H37        -8.5759   38.1318   29.3712 H           1 DGX       0.0621
     75 H38       -10.4776   38.9221   30.2374 H           1 DGX       0.2099
     76 H39        -8.5762   36.7068   27.4060 H           1 DGX       0.0645
     77 H40       -10.1148   39.0294   26.9000 H           1 DGX       0.2100
     78 H41       -11.6001   37.1733   27.1462 H           1 DGX       0.0621
     79 H42       -11.4934   35.4068   25.4132 H           1 DGX       0.0255
     80 H43        -9.7378   35.2885   25.6086 H           1 DGX       0.0255
     81 H44       -10.4647   36.7751   24.9650 H           1 DGX       0.0255
@<TRIPOS>BOND
     1    11     1   1
     2     1     2   1
     3     2     3   1
     4     3     5   1
     5     3     4   1
     6     4    29   1
     7    29    36   1
     8    29    30   1
     9    30    31   1
    10    31    33   1
    11    31    32   1
    12    33    35   1
    13    33    34   1
    14    35    37   1
    15    36    35   1
    16     5     6   1
    17    11     6   1
    18     6     7   1
    19     7     8   1
    20     8     9   1
    21     9    16   1
    22     9    10   1
    23    10    12   1
    24    10    11   1
    25    11    22   1
    26    12    13   1
    27    13    15   1
    28    13    14   1
    29    15    21   1
    30    15    20   1
    31    15    16   1
    32    16    18   1
    33    16    17   1
    34    18    19   1
    35    20    19   1
    36    20    23   1
    37    23    26   2
    38    23    24   1
    39    24    25   1
    40    25    27   1
    41    27    28   2
    42    27    26   1
    43     1    38   1
    44     1    39   1
    45     2    40   1
    46     2    41   1
    47     3    42   1
    48     5    43   1
    49     5    44   1
    50     6    45   1
    51     7    46   1
    52     7    47   1
    53     8    48   1
    54     8    49   1
    55     9    50   1
    56    10    51   1
    57    12    52   1
    58    12    53   1
    59    13    54   1
    60    14    55   1
    61    17    56   1
    62    18    57   1
    63    18    58   1
    64    19    59   1
    65    19    60   1
    66    20    61   1
    67    21    62   1
    68    21    63   1
    69    21    64   1
    70    22    65   1
    71    22    66   1
    72    22    67   1
    73    24    68   1
    74    24    69   1
    75    26    70   1
    76    29    71   1
    77    30    72   1
    78    30    73   1
    79    31    74   1
    80    32    75   1
    81    33    76   1
    82    34    77   1
    83    35    78   1
    84    37    79   1
    85    37    80   1
    86    37    81   1
@<TRIPOS>SUBSTRUCTURE
     1  DGX      1

