@<TRIPOS>MOLECULE
1igj_ligand_060
    81    86
SMALL
GAST_HUCK
****
This file was generated by PARSER (from files_GN.cpp)

@<TRIPOS>ATOM
      1 C1        -12.6089   27.4730   29.3253 C.3         1 DGX      -0.0448
      2 C2        -11.2430   26.9148   29.8113 C.3         1 DGX      -0.0260
      3 C3        -10.7773   25.7166   28.9385 C.3         1 DGX       0.0620
      4 O3        -10.5331   26.2185   27.5929 O.3         1 DGX      -0.3480
      5 C4        -11.8791   24.6240   29.0260 C.3         1 DGX      -0.0232
      6 C5        -13.2142   25.1528   28.3947 C.3         1 DGX      -0.0330
      7 C6        -14.2399   23.9941   28.2287 C.3         1 DGX      -0.0493
      8 C7        -14.8893   23.5865   29.5637 C.3         1 DGX      -0.0470
      9 C8        -15.5196   24.8002   30.3177 C.3         1 DGX      -0.0079
     10 C9        -14.4470   25.9433   30.5267 C.3         1 DGX      -0.0276
     11 C10       -13.7862   26.4216   29.1496 C.3         1 DGX      -0.0258
     12 C11       -15.0283   27.0813   31.4283 C.3         1 DGX      -0.0223
     13 C12       -15.6683   26.5363   32.7332 C.3         1 DGX       0.0664
     14 O12       -16.1066   27.6361   33.5356 O.3         1 DGX      -0.3909
     15 C13       -16.8342   25.4894   32.5153 C.3         1 DGX       0.0405
     16 C14       -16.3247   24.3288   31.5846 C.3         1 DGX       0.0799
     17 O14       -17.4377   23.5726   31.0640 O.3         1 DGX      -0.3874
     18 C15       -15.5663   23.3830   32.5502 C.3         1 DGX      -0.0200
     19 C16       -16.4285   23.3640   33.8227 C.3         1 DGX      -0.0318
     20 C17       -17.1392   24.7522   33.8908 C.3         1 DGX       0.0177
     21 C18       -18.0644   26.2351   31.8772 C.3         1 DGX      -0.0516
     22 C19       -14.8355   27.1448   28.2174 C.3         1 DGX      -0.0590
     23 C20       -18.5417   24.7077   34.3513 C.2         1 DGX      -0.0063
     24 C21       -19.5750   23.7517   33.9788 C.3         1 DGX       0.1204
     25 O21       -20.7221   24.2492   34.6667 O.3         1 DGX      -0.2665
     26 C22       -19.0779   25.6220   35.1648 C.2         1 DGX       0.0017
     27 C23       -20.3890   25.3553   35.3589 C.2         1 DGX       0.2187
     28 O23       -21.2392   26.0822   36.1158 O.2         1 DGX      -0.3870
     29 C1X       -10.1449   25.3786   26.4852 C.3         1 DGX       0.1624
     30 C2X        -8.6535   24.9710   26.5588 C.3         1 DGX       0.0270
     31 C3X        -8.2930   23.9817   25.4160 C.3         1 DGX       0.0881
     32 O3X        -8.3939   24.6188   24.1429 O.3         1 DGX      -0.3890
     33 C4X        -9.2304   22.7490   25.4769 C.3         1 DGX       0.1070
     34 O4X        -8.9284   21.8231   24.4380 O.3         1 DGX      -0.3867
     35 C5X       -10.7184   23.2032   25.4126 C.3         1 DGX       0.0871
     36 O5X       -11.0088   24.2255   26.3928 O.3         1 DGX      -0.3456
     37 C6X       -11.6806   22.0364   25.7143 C.3         1 DGX      -0.0361
     38 H1        -12.9056   28.2856   29.9881 H           1 DGX       0.0271
     39 H2        -12.4001   27.9499   28.3617 H           1 DGX       0.0271
     40 H3        -11.3242   26.6148   30.8591 H           1 DGX       0.0290
     41 H4        -10.4909   27.7081   29.7649 H           1 DGX       0.0290
     42 H5         -9.8434   25.3311   29.3613 H           1 DGX       0.0597
     43 H6        -12.0286   24.3509   30.0678 H           1 DGX       0.0293
     44 H7        -11.5401   23.7103   28.5388 H           1 DGX       0.0293
     45 H8        -12.9773   25.4567   27.3706 H           1 DGX       0.0307
     46 H9        -13.7500   23.1180   27.7942 H           1 DGX       0.0268
     47 H10       -15.0272   24.2920   27.5282 H           1 DGX       0.0268
     48 H11       -14.1311   23.1097   30.1886 H           1 DGX       0.0269
     49 H12       -15.6554   22.8378   29.3473 H           1 DGX       0.0269
     50 H13       -16.2799   25.2125   29.6569 H           1 DGX       0.0332
     51 H14       -13.6463   25.5055   31.1301 H           1 DGX       0.0310
     52 H15       -15.7560   27.6760   30.8823 H           1 DGX       0.0293
     53 H16       -14.2219   27.7528   31.7272 H           1 DGX       0.0293
     54 H17       -14.8591   26.0652   33.3005 H           1 DGX       0.0602
     55 H18       -15.2895   28.1159   33.7927 H           1 DGX       0.2098
     56 H19       -17.9739   23.2814   31.8290 H           1 DGX       0.2102
     57 H20       -14.5686   23.7649   32.7738 H           1 DGX       0.0295
     58 H21       -15.4610   22.3763   32.1388 H           1 DGX       0.0295
     59 H22       -15.8033   23.1771   34.7031 H           1 DGX       0.0301
     60 H23       -17.1335   22.5340   33.7426 H           1 DGX       0.0301
     61 H24       -16.6023   25.2792   34.6882 H           1 DGX       0.0550
     62 H25       -18.4282   27.0224   32.5394 H           1 DGX       0.0239
     63 H26       -18.8948   25.5579   31.6838 H           1 DGX       0.0239
     64 H27       -17.8095   26.6920   30.9212 H           1 DGX       0.0239
     65 H28       -14.3935   27.3988   27.2499 H           1 DGX       0.0235
     66 H29       -15.1926   28.0761   28.6619 H           1 DGX       0.0235
     67 H30       -15.7016   26.5259   28.0047 H           1 DGX       0.0235
     68 H31       -19.3565   22.7447   34.3354 H           1 DGX       0.0859
     69 H32       -19.7658   23.7360   32.9055 H           1 DGX       0.0859
     70 H33       -18.6040   26.4021   35.5564 H           1 DGX       0.0295
     71 H34       -10.2942   25.9783   25.5853 H           1 DGX       0.0910
     72 H35        -8.4659   24.4857   27.5205 H           1 DGX       0.0340
     73 H36        -8.0302   25.8624   26.5065 H           1 DGX       0.0340
     74 H37        -7.2557   23.6519   25.5396 H           1 DGX       0.0621
     75 H38        -7.8198   24.0819   23.5516 H           1 DGX       0.2099
     76 H39        -9.0478   22.2325   26.4283 H           1 DGX       0.0645
     77 H40        -9.2038   22.2587   23.6026 H           1 DGX       0.2100
     78 H41       -10.9353   23.5933   24.4201 H           1 DGX       0.0621
     79 H42       -12.7161   22.3826   25.6868 H           1 DGX       0.0255
     80 H43       -11.4781   21.6378   26.7133 H           1 DGX       0.0255
     81 H44       -11.5542   21.2439   24.9813 H           1 DGX       0.0255
@<TRIPOS>BOND
     1    11     1   1
     2     1     2   1
     3     2     3   1
     4     3     5   1
     5     3     4   1
     6     4    29   1
     7    29    36   1
     8    29    30   1
     9    30    31   1
    10    31    33   1
    11    31    32   1
    12    33    35   1
    13    33    34   1
    14    35    37   1
    15    36    35   1
    16     5     6   1
    17    11     6   1
    18     6     7   1
    19     7     8   1
    20     8     9   1
    21     9    16   1
    22     9    10   1
    23    10    12   1
    24    10    11   1
    25    11    22   1
    26    12    13   1
    27    13    15   1
    28    13    14   1
    29    15    21   1
    30    15    20   1
    31    15    16   1
    32    16    18   1
    33    16    17   1
    34    18    19   1
    35    20    19   1
    36    20    23   1
    37    23    26   2
    38    23    24   1
    39    24    25   1
    40    25    27   1
    41    27    28   2
    42    27    26   1
    43     1    38   1
    44     1    39   1
    45     2    40   1
    46     2    41   1
    47     3    42   1
    48     5    43   1
    49     5    44   1
    50     6    45   1
    51     7    46   1
    52     7    47   1
    53     8    48   1
    54     8    49   1
    55     9    50   1
    56    10    51   1
    57    12    52   1
    58    12    53   1
    59    13    54   1
    60    14    55   1
    61    17    56   1
    62    18    57   1
    63    18    58   1
    64    19    59   1
    65    19    60   1
    66    20    61   1
    67    21    62   1
    68    21    63   1
    69    21    64   1
    70    22    65   1
    71    22    66   1
    72    22    67   1
    73    24    68   1
    74    24    69   1
    75    26    70   1
    76    29    71   1
    77    30    72   1
    78    30    73   1
    79    31    74   1
    80    32    75   1
    81    33    76   1
    82    34    77   1
    83    35    78   1
    84    37    79   1
    85    37    80   1
    86    37    81   1
@<TRIPOS>SUBSTRUCTURE
     1  DGX      1

