@<TRIPOS>MOLECULE
1igj_ligand_041
    81    86
SMALL
GAST_HUCK
****
This file was generated by PARSER (from files_GN.cpp)

@<TRIPOS>ATOM
      1 C1        -16.7049   29.4790   32.4046 C.3         1 DGX      -0.0448
      2 C2        -17.8708   28.9346   31.5368 C.3         1 DGX      -0.0260
      3 C3        -18.1674   27.4451   31.8543 C.3         1 DGX       0.0620
      4 O3        -18.6771   27.3568   33.2118 O.3         1 DGX      -0.3480
      5 C4        -16.8587   26.6431   31.6270 C.3         1 DGX      -0.0232
      6 C5        -15.7248   27.1254   32.5914 C.3         1 DGX      -0.0330
      7 C6        -14.4953   26.1794   32.5078 C.3         1 DGX      -0.0493
      8 C7        -13.7493   26.3022   31.1670 C.3         1 DGX      -0.0470
      9 C8        -13.3380   27.7766   30.8647 C.3         1 DGX      -0.0079
     10 C9        -14.5589   28.7749   30.9791 C.3         1 DGX      -0.0276
     11 C10       -15.3563   28.6485   32.3559 C.3         1 DGX      -0.0258
     12 C11       -14.0952   30.2190   30.6177 C.3         1 DGX      -0.0223
     13 C12       -13.3954   30.2778   29.2367 C.3         1 DGX       0.0664
     14 O12       -13.0639   31.6376   28.9402 O.3         1 DGX      -0.3909
     15 C13       -12.1375   29.3253   29.0945 C.3         1 DGX       0.0405
     16 C14       -12.5306   27.8640   29.5163 C.3         1 DGX       0.0799
     17 O14       -11.3564   27.0503   29.6708 O.3         1 DGX      -0.3874
     18 C15       -13.2664   27.2873   28.2764 C.3         1 DGX      -0.0200
     19 C16       -12.6758   28.0011   27.0492 C.3         1 DGX      -0.0318
     20 C17       -11.7878   29.1711   27.5616 C.3         1 DGX       0.0177
     21 C18       -10.9639   29.9154   29.9522 C.3         1 DGX      -0.0516
     22 C19       -14.5011   29.1969   33.5583 C.3         1 DGX      -0.0590
     23 C20       -10.3880   28.9850   27.1490 C.2         1 DGX      -0.0063
     24 C21        -9.5639   27.7962   27.3026 C.3         1 DGX       0.1204
     25 O21        -8.3901   28.1355   26.5690 O.3         1 DGX      -0.2665
     26 C22        -9.7207   29.8792   26.4041 C.2         1 DGX       0.0017
     27 C23        -8.5191   29.3756   26.0710 C.2         1 DGX       0.2187
     28 O23        -7.5810   30.0254   25.3474 O.2         1 DGX      -0.3870
     29 C1X       -19.2823   26.1360   33.7000 C.3         1 DGX       0.1624
     30 C2X       -20.7754   26.0396   33.2940 C.3         1 DGX       0.0270
     31 C3X       -21.3753   24.6637   33.6817 C.3         1 DGX       0.0881
     32 O3X       -21.5239   24.5670   35.0993 O.3         1 DGX      -0.3890
     33 C4X       -20.4824   23.5074   33.1479 C.3         1 DGX       0.1070
     34 O4X       -20.9743   22.2387   33.5853 O.3         1 DGX      -0.3867
     35 C5X       -19.0113   23.6721   33.6130 C.3         1 DGX       0.0871
     36 O5X       -18.5432   24.9766   33.3003 O.3         1 DGX      -0.3456
     37 C6X       -18.0577   22.6595   32.9296 C.3         1 DGX      -0.0361
     38 H1        -16.5327   30.5222   32.1350 H           1 DGX       0.0271
     39 H2        -17.0778   29.4979   33.4340 H           1 DGX       0.0271
     40 H3        -17.6252   29.0502   30.4776 H           1 DGX       0.0290
     41 H4        -18.7702   29.5274   31.7271 H           1 DGX       0.0290
     42 H5        -18.9196   27.0995   31.1430 H           1 DGX       0.0597
     43 H6        -16.5732   26.7432   30.5851 H           1 DGX       0.0293
     44 H7        -17.0218   25.5818   31.7339 H           1 DGX       0.0293
     45 H8        -16.1068   27.0149   33.6125 H           1 DGX       0.0307
     46 H9        -14.8086   25.1422   32.6504 H           1 DGX       0.0268
     47 H10       -13.7992   26.4181   33.3118 H           1 DGX       0.0268
     48 H11       -14.3836   25.9098   30.3704 H           1 DGX       0.0269
     49 H12       -12.8605   25.6664   31.2165 H           1 DGX       0.0269
     50 H13       -12.6240   28.0562   31.6435 H           1 DGX       0.0332
     51 H14       -15.2578   28.5094   30.1881 H           1 DGX       0.0310
     52 H15       -13.4262   30.6112   31.3826 H           1 DGX       0.0293
     53 H16       -14.9601   30.8820   30.5675 H           1 DGX       0.0293
     54 H17       -14.1489   29.9921   28.4982 H           1 DGX       0.0602
     55 H18       -13.9225   32.1020   28.8473 H           1 DGX       0.2098
     56 H19       -10.9628   27.2891   30.5372 H           1 DGX       0.2102
     57 H20       -14.3388   27.4872   28.3280 H           1 DGX       0.0295
     58 H21       -13.1393   26.2032   28.1917 H           1 DGX       0.0295
     59 H22       -13.4880   28.4016   26.4487 H           1 DGX       0.0301
     60 H23       -12.1447   27.2866   26.4155 H           1 DGX       0.0301
     61 H24       -12.1386   30.0769   27.0524 H           1 DGX       0.0550
     62 H25       -10.6985   30.9120   29.5989 H           1 DGX       0.0239
     63 H26       -10.0733   29.2992   29.9000 H           1 DGX       0.0239
     64 H27       -11.2342   29.9908   31.0042 H           1 DGX       0.0239
     65 H28       -14.9822   28.9705   34.5127 H           1 DGX       0.0235
     66 H29       -14.3932   30.2823   33.5026 H           1 DGX       0.0235
     67 H30       -13.5019   28.7696   33.5896 H           1 DGX       0.0235
     68 H31       -10.0236   26.9150   26.8535 H           1 DGX       0.0859
     69 H32        -9.2941   27.5933   28.3361 H           1 DGX       0.0859
     70 H33       -10.0662   30.7575   26.1020 H           1 DGX       0.0295
     71 H34       -19.2227   26.1831   34.7889 H           1 DGX       0.0910
     72 H35       -20.8784   26.1659   32.2151 H           1 DGX       0.0340
     73 H36       -21.3356   26.8430   33.7792 H           1 DGX       0.0340
     74 H37       -22.3708   24.5819   33.2380 H           1 DGX       0.0621
     75 H38       -22.2319   25.2074   35.3297 H           1 DGX       0.2099
     76 H39       -20.5175   23.5226   32.0521 H           1 DGX       0.0645
     77 H40       -20.8531   21.6359   32.8162 H           1 DGX       0.2100
     78 H41       -18.9391   23.5464   34.6925 H           1 DGX       0.0621
     79 H42       -17.0261   22.8416   33.2364 H           1 DGX       0.0255
     80 H43       -18.1147   22.7486   31.8424 H           1 DGX       0.0255
     81 H44       -18.3217   21.6387   33.2088 H           1 DGX       0.0255
@<TRIPOS>BOND
     1    11     1   1
     2     1     2   1
     3     2     3   1
     4     3     5   1
     5     3     4   1
     6     4    29   1
     7    29    36   1
     8    29    30   1
     9    30    31   1
    10    31    33   1
    11    31    32   1
    12    33    35   1
    13    33    34   1
    14    35    37   1
    15    36    35   1
    16     5     6   1
    17    11     6   1
    18     6     7   1
    19     7     8   1
    20     8     9   1
    21     9    16   1
    22     9    10   1
    23    10    12   1
    24    10    11   1
    25    11    22   1
    26    12    13   1
    27    13    15   1
    28    13    14   1
    29    15    21   1
    30    15    20   1
    31    15    16   1
    32    16    18   1
    33    16    17   1
    34    18    19   1
    35    20    19   1
    36    20    23   1
    37    23    26   2
    38    23    24   1
    39    24    25   1
    40    25    27   1
    41    27    28   2
    42    27    26   1
    43     1    38   1
    44     1    39   1
    45     2    40   1
    46     2    41   1
    47     3    42   1
    48     5    43   1
    49     5    44   1
    50     6    45   1
    51     7    46   1
    52     7    47   1
    53     8    48   1
    54     8    49   1
    55     9    50   1
    56    10    51   1
    57    12    52   1
    58    12    53   1
    59    13    54   1
    60    14    55   1
    61    17    56   1
    62    18    57   1
    63    18    58   1
    64    19    59   1
    65    19    60   1
    66    20    61   1
    67    21    62   1
    68    21    63   1
    69    21    64   1
    70    22    65   1
    71    22    66   1
    72    22    67   1
    73    24    68   1
    74    24    69   1
    75    26    70   1
    76    29    71   1
    77    30    72   1
    78    30    73   1
    79    31    74   1
    80    32    75   1
    81    33    76   1
    82    34    77   1
    83    35    78   1
    84    37    79   1
    85    37    80   1
    86    37    81   1
@<TRIPOS>SUBSTRUCTURE
     1  DGX      1

