@<TRIPOS>MOLECULE
1igj_ligand_042
    81    86
SMALL
GAST_HUCK
****
This file was generated by PARSER (from files_GN.cpp)

@<TRIPOS>ATOM
      1 C1        -11.1384   26.6899   29.0612 C.3         1 DGX      -0.0448
      2 C2        -12.0618   26.4089   30.2707 C.3         1 DGX      -0.0260
      3 C3        -13.4947   26.9525   30.0744 C.3         1 DGX       0.0620
      4 O3        -14.2294   26.2012   29.0779 O.3         1 DGX      -0.3480
      5 C4        -13.4636   28.4355   29.6211 C.3         1 DGX      -0.0232
      6 C5        -12.5078   28.7289   28.4160 C.3         1 DGX      -0.0330
      7 C6        -12.5439   30.2434   28.0448 C.3         1 DGX      -0.0493
      8 C7        -11.8375   31.1353   29.0925 C.3         1 DGX      -0.0470
      9 C8        -10.3817   30.6766   29.4224 C.3         1 DGX      -0.0079
     10 C9        -10.2968   29.1277   29.7188 C.3         1 DGX      -0.0276
     11 C10       -11.0258   28.2085   28.6392 C.3         1 DGX      -0.0258
     12 C11        -8.8021   28.7651   29.9972 C.3         1 DGX      -0.0223
     13 C12        -8.1953   29.6070   31.1525 C.3         1 DGX       0.0664
     14 O12        -6.8567   29.1695   31.3979 O.3         1 DGX      -0.3909
     15 C13        -8.2538   31.1765   30.9371 C.3         1 DGX       0.0405
     16 C14        -9.7174   31.5908   30.5317 C.3         1 DGX       0.0799
     17 O14        -9.7299   32.9359   30.0231 O.3         1 DGX      -0.3874
     18 C15       -10.4705   31.6576   31.8940 C.3         1 DGX      -0.0200
     19 C16        -9.4303   32.0095   32.9813 C.3         1 DGX      -0.0318
     20 C17        -8.0227   31.9058   32.3219 C.3         1 DGX       0.0177
     21 C18        -7.1722   31.5675   29.8707 C.3         1 DGX      -0.0516
     22 C19       -10.2458   28.2035   27.2757 C.3         1 DGX      -0.0590
     23 C20        -7.2828   33.1822   32.3353 C.2         1 DGX      -0.0063
     24 C21        -5.9203   33.3083   32.8208 C.3         1 DGX       0.1204
     25 O21        -5.6478   34.6948   32.6227 O.3         1 DGX      -0.2665
     26 C22        -7.7102   34.3752   31.9248 C.2         1 DGX       0.0017
     27 C23        -6.7320   35.2931   32.0936 C.2         1 DGX       0.2187
     28 O23        -6.8176   36.6062   31.7879 O.2         1 DGX      -0.3870
     29 C1X       -15.1896   25.1718   29.4297 C.3         1 DGX       0.1624
     30 C2X       -14.6194   23.7490   29.1948 C.3         1 DGX       0.0270
     31 C3X       -15.6443   22.6460   29.5938 C.3         1 DGX       0.0881
     32 O3X       -16.6991   22.6000   28.6309 O.3         1 DGX      -0.3890
     33 C4X       -16.2015   22.8905   31.0214 C.3         1 DGX       0.1070
     34 O4X       -17.2432   21.9621   31.3232 O.3         1 DGX      -0.3867
     35 C5X       -16.7045   24.3516   31.1983 C.3         1 DGX       0.0871
     36 O5X       -15.6947   25.3033   30.7801 O.3         1 DGX      -0.3456
     37 C6X       -17.0774   24.6807   32.6609 C.3         1 DGX      -0.0361
     38 H1        -10.1541   26.2758   29.2863 H           1 DGX       0.0271
     39 H2        -11.5302   26.1030   28.2265 H           1 DGX       0.0271
     40 H3        -11.6234   26.8746   31.1544 H           1 DGX       0.0290
     41 H4        -12.1058   25.3313   30.4529 H           1 DGX       0.0290
     42 H5        -13.9796   26.9392   31.0506 H           1 DGX       0.0597
     43 H6        -13.1797   29.0342   30.4884 H           1 DGX       0.0293
     44 H7        -14.4842   28.7378   29.3567 H           1 DGX       0.0293
     45 H8        -12.9324   28.1939   27.5577 H           1 DGX       0.0307
     46 H9        -13.5842   30.5710   27.9454 H           1 DGX       0.0268
     47 H10       -12.0766   30.3997   27.0702 H           1 DGX       0.0268
     48 H11       -12.4389   31.1565   30.0028 H           1 DGX       0.0269
     49 H12       -11.8174   32.1558   28.7025 H           1 DGX       0.0269
     50 H13        -9.8028   30.8492   28.5118 H           1 DGX       0.0332
     51 H14       -10.8149   28.9642   30.6628 H           1 DGX       0.0310
     52 H15        -8.2025   28.9056   29.1005 H           1 DGX       0.0293
     53 H16        -8.7256   27.7156   30.2773 H           1 DGX       0.0293
     54 H17        -8.7563   29.3528   32.0540 H           1 DGX       0.0602
     55 H18        -6.8097   28.2407   31.0967 H           1 DGX       0.2098
     56 H19        -9.4166   32.8844   29.0932 H           1 DGX       0.2102
     57 H20       -10.9239   30.6959   32.1400 H           1 DGX       0.0295
     58 H21       -11.2742   32.3995   31.8777 H           1 DGX       0.0295
     59 H22        -9.5126   31.3007   33.8116 H           1 DGX       0.0301
     60 H23        -9.6354   33.0026   33.3871 H           1 DGX       0.0301
     61 H24        -7.4270   31.2359   32.9460 H           1 DGX       0.0550
     62 H25        -6.1716   31.3136   30.2238 H           1 DGX       0.0239
     63 H26        -7.1877   32.6366   29.6614 H           1 DGX       0.0239
     64 H27        -7.3338   31.0421   28.9322 H           1 DGX       0.0239
     65 H28       -10.8137   27.6914   26.4952 H           1 DGX       0.0235
     66 H29        -9.2886   27.6836   27.3699 H           1 DGX       0.0235
     67 H30       -10.0352   29.2092   26.9142 H           1 DGX       0.0235
     68 H31        -5.2290   32.6972   32.2368 H           1 DGX       0.0859
     69 H32        -5.8466   33.0551   33.8807 H           1 DGX       0.0859
     70 H33        -8.6143   34.5888   31.5777 H           1 DGX       0.0295
     71 H34       -16.0257   25.3199   28.7446 H           1 DGX       0.0910
     72 H35       -13.7129   23.6169   29.7967 H           1 DGX       0.0340
     73 H36       -14.3521   23.6317   28.1412 H           1 DGX       0.0340
     74 H37       -15.1390   21.6720   29.5663 H           1 DGX       0.0621
     75 H38       -16.9920   21.6607   28.6049 H           1 DGX       0.2099
     76 H39       -15.3908   22.7014   31.7261 H           1 DGX       0.0645
     77 H40       -18.0207   22.2205   30.7866 H           1 DGX       0.2100
     78 H41       -17.6021   24.4956   30.5874 H           1 DGX       0.0621
     79 H42       -17.4160   25.7125   32.7335 H           1 DGX       0.0255
     80 H43       -16.2207   24.5503   33.3154 H           1 DGX       0.0255
     81 H44       -17.8823   24.0339   32.9982 H           1 DGX       0.0255
@<TRIPOS>BOND
     1    11     1   1
     2     1     2   1
     3     2     3   1
     4     3     5   1
     5     3     4   1
     6     4    29   1
     7    29    36   1
     8    29    30   1
     9    30    31   1
    10    31    33   1
    11    31    32   1
    12    33    35   1
    13    33    34   1
    14    35    37   1
    15    36    35   1
    16     5     6   1
    17    11     6   1
    18     6     7   1
    19     7     8   1
    20     8     9   1
    21     9    16   1
    22     9    10   1
    23    10    12   1
    24    10    11   1
    25    11    22   1
    26    12    13   1
    27    13    15   1
    28    13    14   1
    29    15    21   1
    30    15    20   1
    31    15    16   1
    32    16    18   1
    33    16    17   1
    34    18    19   1
    35    20    19   1
    36    20    23   1
    37    23    26   2
    38    23    24   1
    39    24    25   1
    40    25    27   1
    41    27    28   2
    42    27    26   1
    43     1    38   1
    44     1    39   1
    45     2    40   1
    46     2    41   1
    47     3    42   1
    48     5    43   1
    49     5    44   1
    50     6    45   1
    51     7    46   1
    52     7    47   1
    53     8    48   1
    54     8    49   1
    55     9    50   1
    56    10    51   1
    57    12    52   1
    58    12    53   1
    59    13    54   1
    60    14    55   1
    61    17    56   1
    62    18    57   1
    63    18    58   1
    64    19    59   1
    65    19    60   1
    66    20    61   1
    67    21    62   1
    68    21    63   1
    69    21    64   1
    70    22    65   1
    71    22    66   1
    72    22    67   1
    73    24    68   1
    74    24    69   1
    75    26    70   1
    76    29    71   1
    77    30    72   1
    78    30    73   1
    79    31    74   1
    80    32    75   1
    81    33    76   1
    82    34    77   1
    83    35    78   1
    84    37    79   1
    85    37    80   1
    86    37    81   1
@<TRIPOS>SUBSTRUCTURE
     1  DGX      1

