@<TRIPOS>MOLECULE
1igj_ligand_059
    81    86
SMALL
GAST_HUCK
****
This file was generated by PARSER (from files_GN.cpp)

@<TRIPOS>ATOM
      1 C1        -13.9813   26.3246   28.4623 C.3         1 DGX      -0.0448
      2 C2        -14.7821   27.3696   27.6456 C.3         1 DGX      -0.0260
      3 C3        -14.4760   28.8212   28.0971 C.3         1 DGX       0.0620
      4 O3        -13.1280   29.1694   27.6778 O.3         1 DGX      -0.3480
      5 C4        -14.7604   28.9276   29.6209 C.3         1 DGX      -0.0232
      6 C5        -13.9074   27.9207   30.4603 C.3         1 DGX      -0.0330
      7 C6        -14.1157   28.1490   31.9837 C.3         1 DGX      -0.0493
      8 C7        -15.5036   27.6859   32.4732 C.3         1 DGX      -0.0470
      9 C8        -15.8215   26.1977   32.1020 C.3         1 DGX      -0.0079
     10 C9        -15.5531   25.8954   30.5739 C.3         1 DGX      -0.0276
     11 C10       -14.1395   26.4038   30.0393 C.3         1 DGX      -0.0258
     12 C11       -15.8496   24.3750   30.3262 C.3         1 DGX      -0.0223
     13 C12       -17.2802   23.9634   30.7545 C.3         1 DGX       0.0664
     14 O12       -17.4426   22.5851   30.4012 O.3         1 DGX      -0.3909
     15 C13       -17.6469   24.2662   32.2647 C.3         1 DGX       0.0405
     16 C14       -17.2521   25.7556   32.6146 C.3         1 DGX       0.0799
     17 O14       -17.2487   25.8930   34.0464 O.3         1 DGX      -0.3874
     18 C15       -18.4431   26.6090   32.0869 C.3         1 DGX      -0.0200
     19 C16       -19.6864   25.6965   32.0426 C.3         1 DGX      -0.0318
     20 C17       -19.2239   24.2572   32.4165 C.3         1 DGX       0.0177
     21 C18       -16.9274   23.2180   33.1793 C.3         1 DGX      -0.0516
     22 C19       -12.9709   25.5250   30.6112 C.3         1 DGX      -0.0590
     23 C20       -19.7926   23.7554   33.6778 C.2         1 DGX      -0.0063
     24 C21       -20.2944   22.4044   33.8267 C.3         1 DGX       0.1204
     25 O21       -20.6924   22.3699   35.1955 O.3         1 DGX      -0.2665
     26 C22       -19.9533   24.4079   34.8366 C.2         1 DGX       0.0017
     27 C23       -20.4897   23.5779   35.7517 C.2         1 DGX       0.2187
     28 O23       -20.7631   23.8749   37.0403 O.2         1 DGX      -0.3870
     29 C1X       -12.5994   30.4490   28.0838 C.3         1 DGX       0.1624
     30 C2X       -11.3393   30.7819   27.2415 C.3         1 DGX       0.0270
     31 C3X       -10.7721   32.1734   27.6340 C.3         1 DGX       0.0881
     32 O3X       -10.1854   32.1076   28.9392 O.3         1 DGX      -0.3890
     33 C4X       -11.8782   33.2634   27.6050 C.3         1 DGX       0.1070
     34 O4X       -11.3817   34.4939   28.1221 O.3         1 DGX      -0.3867
     35 C5X       -13.1409   32.8016   28.3962 C.3         1 DGX       0.0871
     36 O5X       -13.5715   31.5064   27.9363 O.3         1 DGX      -0.3456
     37 C6X       -14.3333   33.7686   28.2409 C.3         1 DGX      -0.0361
     38 H1        -14.2484   25.3331   28.0911 H           1 DGX       0.0271
     39 H2        -12.9294   26.4699   28.1919 H           1 DGX       0.0271
     40 H3        -15.8513   27.1739   27.7618 H           1 DGX       0.0290
     41 H4        -14.5396   27.2705   26.5809 H           1 DGX       0.0290
     42 H5        -15.1688   29.4814   27.5680 H           1 DGX       0.0597
     43 H6        -15.8292   28.7656   29.7870 H           1 DGX       0.0293
     44 H7        -14.5588   29.9481   29.9565 H           1 DGX       0.0293
     45 H8        -12.8595   28.1731   30.2573 H           1 DGX       0.0307
     46 H9        -13.9933   29.2110   32.2187 H           1 DGX       0.0268
     47 H10       -13.3437   27.6137   32.5428 H           1 DGX       0.0268
     48 H11       -16.2668   28.3471   32.0641 H           1 DGX       0.0269
     49 H12       -15.5210   27.8072   33.5575 H           1 DGX       0.0269
     50 H13       -15.1117   25.5965   32.6781 H           1 DGX       0.0332
     51 H14       -16.3071   26.4356   30.0015 H           1 DGX       0.0310
     52 H15       -15.1281   23.7578   30.8600 H           1 DGX       0.0293
     53 H16       -15.7448   24.1476   29.2659 H           1 DGX       0.0293
     54 H17       -17.9594   24.5094   30.1019 H           1 DGX       0.0602
     55 H18       -18.3765   22.3484   30.5665 H           1 DGX       0.2098
     56 H19       -17.2911   26.8530   34.2359 H           1 DGX       0.2102
     57 H20       -18.2459   26.9934   31.0806 H           1 DGX       0.0295
     58 H21       -18.6353   27.4734   32.7326 H           1 DGX       0.0295
     59 H22       -20.0968   25.6960   31.0235 H           1 DGX       0.0301
     60 H23       -20.4740   26.0786   32.7025 H           1 DGX       0.0301
     61 H24       -19.6385   23.5959   31.6391 H           1 DGX       0.0550
     62 H25       -17.2797   22.2127   32.9574 H           1 DGX       0.0239
     63 H26       -17.1195   23.3985   34.2371 H           1 DGX       0.0239
     64 H27       -15.8509   23.2293   33.0386 H           1 DGX       0.0239
     65 H28       -11.9931   25.9683   30.4005 H           1 DGX       0.0235
     66 H29       -12.9789   24.5194   30.1799 H           1 DGX       0.0235
     67 H30       -13.0508   25.4129   31.6867 H           1 DGX       0.0235
     68 H31       -19.5047   21.6709   33.6456 H           1 DGX       0.0859
     69 H32       -21.1514   22.2122   33.1667 H           1 DGX       0.0859
     70 H33       -19.7387   25.3548   35.0092 H           1 DGX       0.0295
     71 H34       -12.2967   30.3692   29.1336 H           1 DGX       0.0910
     72 H35       -11.6152   30.7901   26.1856 H           1 DGX       0.0340
     73 H36       -10.5758   30.0106   27.3803 H           1 DGX       0.0340
     74 H37        -9.9829   32.4474   26.9220 H           1 DGX       0.0621
     75 H38        -9.5137   31.3910   28.8845 H           1 DGX       0.2099
     76 H39       -12.1604   33.4387   26.5631 H           1 DGX       0.0645
     77 H40       -11.1603   34.3177   29.0617 H           1 DGX       0.2100
     78 H41       -12.8988   32.7459   29.4649 H           1 DGX       0.0621
     79 H42       -15.1927   33.3923   28.8069 H           1 DGX       0.0255
     80 H43       -14.6233   33.8556   27.1879 H           1 DGX       0.0255
     81 H44       -14.0808   34.7626   28.6233 H           1 DGX       0.0255
@<TRIPOS>BOND
     1    11     1   1
     2     1     2   1
     3     2     3   1
     4     3     5   1
     5     3     4   1
     6     4    29   1
     7    29    36   1
     8    29    30   1
     9    30    31   1
    10    31    33   1
    11    31    32   1
    12    33    35   1
    13    33    34   1
    14    35    37   1
    15    36    35   1
    16     5     6   1
    17    11     6   1
    18     6     7   1
    19     7     8   1
    20     8     9   1
    21     9    16   1
    22     9    10   1
    23    10    12   1
    24    10    11   1
    25    11    22   1
    26    12    13   1
    27    13    15   1
    28    13    14   1
    29    15    21   1
    30    15    20   1
    31    15    16   1
    32    16    18   1
    33    16    17   1
    34    18    19   1
    35    20    19   1
    36    20    23   1
    37    23    26   2
    38    23    24   1
    39    24    25   1
    40    25    27   1
    41    27    28   2
    42    27    26   1
    43     1    38   1
    44     1    39   1
    45     2    40   1
    46     2    41   1
    47     3    42   1
    48     5    43   1
    49     5    44   1
    50     6    45   1
    51     7    46   1
    52     7    47   1
    53     8    48   1
    54     8    49   1
    55     9    50   1
    56    10    51   1
    57    12    52   1
    58    12    53   1
    59    13    54   1
    60    14    55   1
    61    17    56   1
    62    18    57   1
    63    18    58   1
    64    19    59   1
    65    19    60   1
    66    20    61   1
    67    21    62   1
    68    21    63   1
    69    21    64   1
    70    22    65   1
    71    22    66   1
    72    22    67   1
    73    24    68   1
    74    24    69   1
    75    26    70   1
    76    29    71   1
    77    30    72   1
    78    30    73   1
    79    31    74   1
    80    32    75   1
    81    33    76   1
    82    34    77   1
    83    35    78   1
    84    37    79   1
    85    37    80   1
    86    37    81   1
@<TRIPOS>SUBSTRUCTURE
     1  DGX      1

