@<TRIPOS>MOLECULE
1igj_ligand_039
    81    86
SMALL
GAST_HUCK
****
This file was generated by PARSER (from files_GN.cpp)

@<TRIPOS>ATOM
      1 C1        -14.1932   28.6040   29.1795 C.3         1 DGX      -0.0448
      2 C2        -13.4532   27.2424   29.2148 C.3         1 DGX      -0.0260
      3 C3        -13.7982   26.4280   30.4873 C.3         1 DGX       0.0620
      4 O3        -15.1712   25.9695   30.3986 O.3         1 DGX      -0.3480
      5 C4        -13.5364   27.2908   31.7489 C.3         1 DGX      -0.0232
      6 C5        -14.2751   28.6745   31.7225 C.3         1 DGX      -0.0330
      7 C6        -14.0154   29.4675   33.0404 C.3         1 DGX      -0.0493
      8 C7        -12.5765   30.0286   33.1319 C.3         1 DGX      -0.0470
      9 C8        -12.1679   30.8720   31.8824 C.3         1 DGX      -0.0079
     10 C9        -12.4622   30.1065   30.5344 C.3         1 DGX      -0.0276
     11 C10       -13.9522   29.5372   30.4325 C.3         1 DGX      -0.0258
     12 C11       -11.9991   30.9717   29.3170 C.3         1 DGX      -0.0223
     13 C12       -10.5272   31.4531   29.4427 C.3         1 DGX       0.0664
     14 O12       -10.1790   32.2036   28.2757 O.3         1 DGX      -0.3909
     15 C13       -10.2135   32.2687   30.7620 C.3         1 DGX       0.0405
     16 C14       -10.6976   31.4427   32.0104 C.3         1 DGX       0.0799
     17 O14       -10.6868   32.2764   33.1829 O.3         1 DGX      -0.3874
     18 C15        -9.5824   30.3814   32.2152 C.3         1 DGX      -0.0200
     19 C16        -8.2754   31.0223   31.7061 C.3         1 DGX      -0.0318
     20 C17        -8.6380   32.3472   30.9571 C.3         1 DGX       0.0177
     21 C18       -10.9534   33.6542   30.6847 C.3         1 DGX      -0.0516
     22 C19       -15.0035   30.7024   30.2865 C.3         1 DGX      -0.0590
     23 C20        -8.0568   33.5826   31.5314 C.2         1 DGX      -0.0063
     24 C21        -7.2397   33.7186   32.7296 C.3         1 DGX       0.1204
     25 O21        -6.9565   35.1137   32.7718 O.3         1 DGX      -0.2665
     26 C22        -8.1055   34.7764   30.9262 C.2         1 DGX       0.0017
     27 C23        -7.4779   35.7063   31.6845 C.2         1 DGX       0.2187
     28 O23        -7.4126   37.0331   31.4338 O.2         1 DGX      -0.3870
     29 C1X       -15.5673   24.7633   31.0896 C.3         1 DGX       0.1624
     30 C2X       -16.3878   25.0907   32.3642 C.3         1 DGX       0.0270
     31 C3X       -16.9592   23.7928   32.9959 C.3         1 DGX       0.0881
     32 O3X       -15.8886   23.0339   33.5632 O.3         1 DGX      -0.3890
     33 C4X       -17.7461   22.9650   31.9415 C.3         1 DGX       0.1070
     34 O4X       -18.1334   21.7059   32.4908 O.3         1 DGX      -0.3867
     35 C5X       -16.9061   22.7639   30.6449 C.3         1 DGX       0.0871
     36 O5X       -16.4001   24.0308   30.1617 O.3         1 DGX      -0.3456
     37 C6X       -17.7338   22.1238   29.5051 C.3         1 DGX      -0.0361
     38 H1        -13.9275   29.1169   28.2542 H           1 DGX       0.0271
     39 H2        -15.2620   28.3751   29.0955 H           1 DGX       0.0271
     40 H3        -12.3756   27.4095   29.1631 H           1 DGX       0.0290
     41 H4        -13.7286   26.6615   28.3324 H           1 DGX       0.0290
     42 H5        -13.1147   25.5710   30.5021 H           1 DGX       0.0597
     43 H6        -12.4608   27.4414   31.8263 H           1 DGX       0.0293
     44 H7        -13.8315   26.7248   32.6323 H           1 DGX       0.0293
     45 H8        -15.3454   28.4372   31.7181 H           1 DGX       0.0307
     46 H9        -14.1998   28.8219   33.9041 H           1 DGX       0.0268
     47 H10       -14.7238   30.2960   33.1170 H           1 DGX       0.0268
     48 H11       -11.8817   29.1993   33.2690 H           1 DGX       0.0269
     49 H12       -12.5172   30.6499   34.0304 H           1 DGX       0.0269
     50 H13       -12.8202   31.7446   31.9030 H           1 DGX       0.0332
     51 H14       -11.7993   29.2415   30.5279 H           1 DGX       0.0310
     52 H15       -12.6495   31.8357   29.1923 H           1 DGX       0.0293
     53 H16       -12.0657   30.3823   28.4016 H           1 DGX       0.0293
     54 H17        -9.9010   30.5559   29.4109 H           1 DGX       0.0602
     55 H18       -10.1604   31.5563   27.5389 H           1 DGX       0.2098
     56 H19        -9.7509   32.5010   33.3522 H           1 DGX       0.2102
     57 H20        -9.7863   29.4757   31.6418 H           1 DGX       0.0295
     58 H21        -9.4935   30.0908   33.2668 H           1 DGX       0.0295
     59 H22        -7.7764   30.3312   31.0198 H           1 DGX       0.0301
     60 H23        -7.6010   31.1618   32.5502 H           1 DGX       0.0301
     61 H24        -8.1588   32.2739   29.9742 H           1 DGX       0.0550
     62 H25       -10.6584   34.2133   29.7968 H           1 DGX       0.0239
     63 H26       -10.7433   34.2769   31.5536 H           1 DGX       0.0239
     64 H27       -12.0334   33.5256   30.6480 H           1 DGX       0.0239
     65 H28       -16.0239   30.3172   30.3391 H           1 DGX       0.0235
     66 H29       -14.9010   31.2084   29.3250 H           1 DGX       0.0235
     67 H30       -14.9048   31.4549   31.0648 H           1 DGX       0.0235
     68 H31        -6.2990   33.1681   32.6465 H           1 DGX       0.0859
     69 H32        -7.7780   33.4141   33.6275 H           1 DGX       0.0859
     70 H33        -8.5164   34.9653   30.0450 H           1 DGX       0.0295
     71 H34       -14.7030   24.1428   31.3523 H           1 DGX       0.0910
     72 H35       -17.2141   25.7557   32.0993 H           1 DGX       0.0340
     73 H36       -15.7655   25.6079   33.0940 H           1 DGX       0.0340
     74 H37       -17.6368   24.0676   33.8106 H           1 DGX       0.0621
     75 H38       -16.3101   22.4256   34.2071 H           1 DGX       0.2099
     76 H39       -18.6609   23.5133   31.6886 H           1 DGX       0.0645
     77 H40       -18.7906   21.9171   33.1892 H           1 DGX       0.2100
     78 H41       -16.0636   22.0998   30.8576 H           1 DGX       0.0621
     79 H42       -17.1259   22.0578   28.6005 H           1 DGX       0.0255
     80 H43       -18.6195   22.7236   29.2857 H           1 DGX       0.0255
     81 H44       -18.0530   21.1181   29.7801 H           1 DGX       0.0255
@<TRIPOS>BOND
     1    11     1   1
     2     1     2   1
     3     2     3   1
     4     3     5   1
     5     3     4   1
     6     4    29   1
     7    29    36   1
     8    29    30   1
     9    30    31   1
    10    31    33   1
    11    31    32   1
    12    33    35   1
    13    33    34   1
    14    35    37   1
    15    36    35   1
    16     5     6   1
    17    11     6   1
    18     6     7   1
    19     7     8   1
    20     8     9   1
    21     9    16   1
    22     9    10   1
    23    10    12   1
    24    10    11   1
    25    11    22   1
    26    12    13   1
    27    13    15   1
    28    13    14   1
    29    15    21   1
    30    15    20   1
    31    15    16   1
    32    16    18   1
    33    16    17   1
    34    18    19   1
    35    20    19   1
    36    20    23   1
    37    23    26   2
    38    23    24   1
    39    24    25   1
    40    25    27   1
    41    27    28   2
    42    27    26   1
    43     1    38   1
    44     1    39   1
    45     2    40   1
    46     2    41   1
    47     3    42   1
    48     5    43   1
    49     5    44   1
    50     6    45   1
    51     7    46   1
    52     7    47   1
    53     8    48   1
    54     8    49   1
    55     9    50   1
    56    10    51   1
    57    12    52   1
    58    12    53   1
    59    13    54   1
    60    14    55   1
    61    17    56   1
    62    18    57   1
    63    18    58   1
    64    19    59   1
    65    19    60   1
    66    20    61   1
    67    21    62   1
    68    21    63   1
    69    21    64   1
    70    22    65   1
    71    22    66   1
    72    22    67   1
    73    24    68   1
    74    24    69   1
    75    26    70   1
    76    29    71   1
    77    30    72   1
    78    30    73   1
    79    31    74   1
    80    32    75   1
    81    33    76   1
    82    34    77   1
    83    35    78   1
    84    37    79   1
    85    37    80   1
    86    37    81   1
@<TRIPOS>SUBSTRUCTURE
     1  DGX      1

