@<TRIPOS>MOLECULE
1igj_ligand_015
    81    86
SMALL
GAST_HUCK
****
This file was generated by PARSER (from files_GN.cpp)

@<TRIPOS>ATOM
      1 C1        -14.6924   29.7416   31.1662 C.3         1 DGX      -0.0448
      2 C2        -15.8441   30.1526   30.2106 C.3         1 DGX      -0.0260
      3 C3        -17.1624   29.3823   30.5003 C.3         1 DGX       0.0620
      4 O3        -17.7249   29.8216   31.7572 O.3         1 DGX      -0.3480
      5 C4        -16.8653   27.8546   30.4917 C.3         1 DGX      -0.0232
      6 C5        -15.7448   27.4522   31.5078 C.3         1 DGX      -0.0330
      7 C6        -15.5907   25.9028   31.5671 C.3         1 DGX      -0.0493
      8 C7        -14.9395   25.3322   30.2885 C.3         1 DGX      -0.0470
      9 C8        -13.5892   26.0280   29.9205 C.3         1 DGX      -0.0079
     10 C9        -13.7102   27.6005   29.9102 C.3         1 DGX      -0.0276
     11 C10       -14.3737   28.1939   31.2375 C.3         1 DGX      -0.0258
     12 C11       -12.3340   28.2189   29.5082 C.3         1 DGX      -0.0223
     13 C12       -11.7886   27.6566   28.1644 C.3         1 DGX       0.0664
     14 O12       -10.5662   28.3466   27.8818 O.3         1 DGX      -0.3909
     15 C13       -11.6244   26.0789   28.1273 C.3         1 DGX       0.0405
     16 C14       -12.9638   25.4071   28.6100 C.3         1 DGX       0.0799
     17 O14       -12.7505   24.0134   28.8863 O.3         1 DGX      -0.3874
     18 C15       -13.8782   25.4529   27.3522 C.3         1 DGX      -0.0200
     19 C16       -12.9502   25.3532   26.1248 C.3         1 DGX      -0.0318
     20 C17       -11.4923   25.5842   26.6259 C.3         1 DGX       0.0177
     21 C18       -10.3891   25.6844   29.0149 C.3         1 DGX      -0.0516
     22 C19       -13.4226   28.0225   32.4803 C.3         1 DGX      -0.0590
     23 C20       -10.6046   24.4397   26.3473 C.2         1 DGX      -0.0063
     24 C21        -9.3242   24.5682   25.6757 C.3         1 DGX       0.1204
     25 O21        -8.8339   23.2291   25.6705 O.3         1 DGX      -0.2665
     26 C22       -10.7993   23.1512   26.6583 C.2         1 DGX       0.0017
     27 C23        -9.7348   22.4205   26.2614 C.2         1 DGX       0.2187
     28 O23        -9.5833   21.0884   26.4275 O.2         1 DGX      -0.3870
     29 C1X       -19.0498   29.3929   32.1599 C.3         1 DGX       0.1624
     30 C2X       -19.9879   30.6229   32.2573 C.3         1 DGX       0.0270
     31 C3X       -21.4187   30.1971   32.6987 C.3         1 DGX       0.0881
     32 O3X       -21.4136   29.8013   34.0734 O.3         1 DGX      -0.3890
     33 C4X       -21.9602   29.0340   31.8171 C.3         1 DGX       0.1070
     34 O4X       -23.2118   28.5663   32.3221 O.3         1 DGX      -0.3867
     35 C5X       -20.9284   27.8729   31.7460 C.3         1 DGX       0.0871
     36 O5X       -19.6596   28.3969   31.3043 O.3         1 DGX      -0.3456
     37 C6X       -21.3414   26.7536   30.7639 C.3         1 DGX      -0.0361
     38 H1        -13.7992   30.3066   30.8962 H           1 DGX       0.0271
     39 H2        -14.9827   30.0974   32.1602 H           1 DGX       0.0271
     40 H3        -15.5367   29.9776   29.1768 H           1 DGX       0.0290
     41 H4        -16.0252   31.2266   30.3118 H           1 DGX       0.0290
     42 H5        -17.8627   29.6303   29.6973 H           1 DGX       0.0597
     43 H6        -16.5905   27.5764   29.4740 H           1 DGX       0.0293
     44 H7        -17.7622   27.2860   30.7304 H           1 DGX       0.0293
     45 H8        -16.1098   27.7527   32.4964 H           1 DGX       0.0307
     46 H9        -16.5702   25.4365   31.7056 H           1 DGX       0.0268
     47 H10       -14.9899   25.6205   32.4343 H           1 DGX       0.0268
     48 H11       -15.6497   25.4255   29.4649 H           1 DGX       0.0269
     49 H12       -14.7740   24.2639   30.4493 H           1 DGX       0.0269
     50 H13       -12.8911   25.7727   30.7216 H           1 DGX       0.0332
     51 H14       -14.3775   27.8580   29.0892 H           1 DGX       0.0310
     52 H15       -11.5978   28.0536   30.2956 H           1 DGX       0.0293
     53 H16       -12.4405   29.2985   29.3853 H           1 DGX       0.0293
     54 H17       -12.4922   27.9696   27.3864 H           1 DGX       0.0602
     55 H18       -10.4271   28.2674   26.9150 H           1 DGX       0.2098
     56 H19       -12.2102   23.9724   29.7025 H           1 DGX       0.2102
     57 H20       -14.4360   26.3902   27.3014 H           1 DGX       0.0295
     58 H21       -14.6073   24.6370   27.3512 H           1 DGX       0.0295
     59 H22       -13.2278   26.1111   25.3857 H           1 DGX       0.0301
     60 H23       -13.0821   24.3785   25.6500 H           1 DGX       0.0301
     61 H24       -11.0898   26.4113   26.0311 H           1 DGX       0.0550
     62 H25        -9.4739   26.1290   28.6214 H           1 DGX       0.0239
     63 H26       -10.2392   24.6059   29.0482 H           1 DGX       0.0239
     64 H27       -10.5162   26.0233   30.0405 H           1 DGX       0.0239
     65 H28       -13.9244   28.3288   33.4013 H           1 DGX       0.0235
     66 H29       -12.5256   28.6364   32.3802 H           1 DGX       0.0235
     67 H30       -13.1046   26.9923   32.6191 H           1 DGX       0.0235
     68 H31        -8.6444   25.2169   26.2328 H           1 DGX       0.0859
     69 H32        -9.4456   24.9338   24.6529 H           1 DGX       0.0859
     70 H33       -11.6012   22.7672   27.0902 H           1 DGX       0.0295
     71 H34       -18.9254   28.9695   33.1603 H           1 DGX       0.0910
     72 H35       -20.0421   31.1054   31.2778 H           1 DGX       0.0340
     73 H36       -19.5802   31.3484   32.9676 H           1 DGX       0.0340
     74 H37       -22.0872   31.0589   32.6071 H           1 DGX       0.0621
     75 H38       -21.2016   30.6143   34.5803 H           1 DGX       0.2099
     76 H39       -22.1310   29.4158   30.8073 H           1 DGX       0.0645
     77 H40       -23.8378   29.3106   32.2004 H           1 DGX       0.2100
     78 H41       -20.8158   27.4227   32.7381 H           1 DGX       0.0621
     79 H42       -20.5871   25.9676   30.7624 H           1 DGX       0.0255
     80 H43       -21.4312   27.1479   29.7530 H           1 DGX       0.0255
     81 H44       -22.2945   26.3151   31.0588 H           1 DGX       0.0255
@<TRIPOS>BOND
     1    11     1   1
     2     1     2   1
     3     2     3   1
     4     3     5   1
     5     3     4   1
     6     4    29   1
     7    29    36   1
     8    29    30   1
     9    30    31   1
    10    31    33   1
    11    31    32   1
    12    33    35   1
    13    33    34   1
    14    35    37   1
    15    36    35   1
    16     5     6   1
    17    11     6   1
    18     6     7   1
    19     7     8   1
    20     8     9   1
    21     9    16   1
    22     9    10   1
    23    10    12   1
    24    10    11   1
    25    11    22   1
    26    12    13   1
    27    13    15   1
    28    13    14   1
    29    15    21   1
    30    15    20   1
    31    15    16   1
    32    16    18   1
    33    16    17   1
    34    18    19   1
    35    20    19   1
    36    20    23   1
    37    23    26   2
    38    23    24   1
    39    24    25   1
    40    25    27   1
    41    27    28   2
    42    27    26   1
    43     1    38   1
    44     1    39   1
    45     2    40   1
    46     2    41   1
    47     3    42   1
    48     5    43   1
    49     5    44   1
    50     6    45   1
    51     7    46   1
    52     7    47   1
    53     8    48   1
    54     8    49   1
    55     9    50   1
    56    10    51   1
    57    12    52   1
    58    12    53   1
    59    13    54   1
    60    14    55   1
    61    17    56   1
    62    18    57   1
    63    18    58   1
    64    19    59   1
    65    19    60   1
    66    20    61   1
    67    21    62   1
    68    21    63   1
    69    21    64   1
    70    22    65   1
    71    22    66   1
    72    22    67   1
    73    24    68   1
    74    24    69   1
    75    26    70   1
    76    29    71   1
    77    30    72   1
    78    30    73   1
    79    31    74   1
    80    32    75   1
    81    33    76   1
    82    34    77   1
    83    35    78   1
    84    37    79   1
    85    37    80   1
    86    37    81   1
@<TRIPOS>SUBSTRUCTURE
     1  DGX      1

