@<TRIPOS>MOLECULE
1igj_ligand_082
    81    86
SMALL
GAST_HUCK
****
This file was generated by PARSER (from files_GN.cpp)

@<TRIPOS>ATOM
      1 C1        -12.4708   29.6083   28.5607 C.3         1 DGX      -0.0448
      2 C2        -11.0044   29.7609   29.0506 C.3         1 DGX      -0.0260
      3 C3         -9.9945   29.7126   27.8674 C.3         1 DGX       0.0620
      4 O3        -10.1083   30.9498   27.1157 O.3         1 DGX      -0.3480
      5 C4        -10.2281   28.3906   27.0842 C.3         1 DGX      -0.0232
      6 C5        -11.6916   28.2288   26.5702 C.3         1 DGX      -0.0330
      7 C6        -11.8004   26.9663   25.6696 C.3         1 DGX      -0.0493
      8 C7        -11.7740   25.6652   26.4914 C.3         1 DGX      -0.0470
      9 C8        -12.8768   25.6670   27.5905 C.3         1 DGX      -0.0079
     10 C9        -12.8061   26.9464   28.5184 C.3         1 DGX      -0.0276
     11 C10       -12.7880   28.3124   27.7052 C.3         1 DGX      -0.0258
     12 C11       -13.9259   26.8873   29.6052 C.3         1 DGX      -0.0223
     13 C12       -13.9235   25.5751   30.4095 C.3         1 DGX       0.0664
     14 O12       -14.9830   25.6194   31.3698 O.3         1 DGX      -0.3909
     15 C13       -14.0106   24.2795   29.5005 C.3         1 DGX       0.0405
     16 C14       -12.9200   24.3054   28.3710 C.3         1 DGX       0.0799
     17 O14       -13.2182   23.2565   27.4279 O.3         1 DGX      -0.3874
     18 C15       -11.5885   23.9073   29.0654 C.3         1 DGX      -0.0200
     19 C16       -12.0071   23.1659   30.3472 C.3         1 DGX      -0.0318
     20 C17       -13.5565   23.0368   30.3427 C.3         1 DGX       0.0177
     21 C18       -15.4638   24.1664   28.9179 C.3         1 DGX      -0.0516
     22 C19       -14.2060   28.5718   27.0746 C.3         1 DGX      -0.0590
     23 C20       -14.0576   21.7178   29.9281 C.2         1 DGX      -0.0063
     24 C21       -15.4412   21.3447   30.1272 C.3         1 DGX       0.1204
     25 O21       -15.3751   19.9275   30.0626 O.3         1 DGX      -0.2665
     26 C22       -13.3474   20.6219   29.6131 C.2         1 DGX       0.0017
     27 C23       -14.1233   19.5374   29.7576 C.2         1 DGX       0.2187
     28 O23       -13.7254   18.2530   29.6393 O.2         1 DGX      -0.3870
     29 C1X        -9.5575   31.1542   25.7917 C.3         1 DGX       0.1624
     30 C2X        -8.2072   30.4339   25.4766 C.3         1 DGX       0.0270
     31 C3X        -7.8517   30.5108   23.9702 C.3         1 DGX       0.0881
     32 O3X        -7.3588   31.7997   23.6176 O.3         1 DGX      -0.3890
     33 C4X        -9.0568   30.1397   23.0681 C.3         1 DGX       0.1070
     34 O4X        -8.7161   30.2369   21.6845 O.3         1 DGX      -0.3867
     35 C5X       -10.2704   31.0391   23.4379 C.3         1 DGX       0.0871
     36 O5X       -10.5885   30.8387   24.8291 O.3         1 DGX      -0.3456
     37 C6X       -11.5177   30.7107   22.5855 C.3         1 DGX      -0.0361
     38 H1        -13.1381   29.6720   29.4245 H           1 DGX       0.0271
     39 H2        -12.6820   30.4991   27.9587 H           1 DGX       0.0271
     40 H3        -10.7785   28.9686   29.7723 H           1 DGX       0.0290
     41 H4        -10.9052   30.7141   29.5789 H           1 DGX       0.0290
     42 H5         -8.9878   29.6868   28.2974 H           1 DGX       0.0597
     43 H6         -9.9679   27.5614   27.7467 H           1 DGX       0.0293
     44 H7         -9.5476   28.3431   26.2348 H           1 DGX       0.0293
     45 H8        -11.8625   29.0735   25.9066 H           1 DGX       0.0307
     46 H9        -10.9871   26.9517   24.9391 H           1 DGX       0.0268
     47 H10       -12.7305   26.9920   25.1013 H           1 DGX       0.0268
     48 H11       -10.7848   25.5271   26.9325 H           1 DGX       0.0269
     49 H12       -11.9349   24.8430   25.7894 H           1 DGX       0.0269
     50 H13       -13.8248   25.7075   27.0522 H           1 DGX       0.0332
     51 H14       -11.8558   26.8996   29.0530 H           1 DGX       0.0310
     52 H15       -14.9108   27.0012   29.1557 H           1 DGX       0.0293
     53 H16       -13.7918   27.7058   30.3123 H           1 DGX       0.0293
     54 H17       -13.0054   25.5869   30.9978 H           1 DGX       0.0602
     55 H18       -14.6870   26.2397   32.0702 H           1 DGX       0.2098
     56 H19       -12.4164   23.1180   26.8835 H           1 DGX       0.2102
     57 H20       -10.9922   24.7765   29.3431 H           1 DGX       0.0295
     58 H21       -10.9634   23.2703   28.4332 H           1 DGX       0.0295
     59 H22       -11.7094   23.7602   31.2072 H           1 DGX       0.0301
     60 H23       -11.4889   22.2185   30.4477 H           1 DGX       0.0301
     61 H24       -13.8861   23.1596   31.3826 H           1 DGX       0.0550
     62 H25       -16.1953   24.0820   29.7211 H           1 DGX       0.0239
     63 H26       -15.5758   23.3013   28.2695 H           1 DGX       0.0239
     64 H27       -15.7130   25.0389   28.3223 H           1 DGX       0.0239
     65 H28       -14.1769   29.4345   26.4174 H           1 DGX       0.0235
     66 H29       -14.9552   28.8028   27.8352 H           1 DGX       0.0235
     67 H30       -14.5683   27.7305   26.4871 H           1 DGX       0.0235
     68 H31       -16.0917   21.7115   29.3330 H           1 DGX       0.0859
     69 H32       -15.8096   21.6720   31.1036 H           1 DGX       0.0859
     70 H33       -12.3777   20.5683   29.4036 H           1 DGX       0.0295
     71 H34        -9.3793   32.2304   25.7218 H           1 DGX       0.0910
     72 H35        -8.2482   29.3834   25.7519 H           1 DGX       0.0340
     73 H36        -7.4169   30.8829   26.0678 H           1 DGX       0.0340
     74 H37        -7.0528   29.7940   23.7767 H           1 DGX       0.0621
     75 H38        -6.6568   31.9985   24.2732 H           1 DGX       0.2099
     76 H39        -9.3275   29.0999   23.2621 H           1 DGX       0.0645
     77 H40        -8.8789   31.1716   21.4393 H           1 DGX       0.2100
     78 H41       -10.0226   32.0922   23.2689 H           1 DGX       0.0621
     79 H42       -12.3628   31.3044   22.9364 H           1 DGX       0.0255
     80 H43       -11.7702   29.6556   22.6598 H           1 DGX       0.0255
     81 H44       -11.3382   30.9553   21.5392 H           1 DGX       0.0255
@<TRIPOS>BOND
     1    11     1   1
     2     1     2   1
     3     2     3   1
     4     3     5   1
     5     3     4   1
     6     4    29   1
     7    29    36   1
     8    29    30   1
     9    30    31   1
    10    31    33   1
    11    31    32   1
    12    33    35   1
    13    33    34   1
    14    35    37   1
    15    36    35   1
    16     5     6   1
    17    11     6   1
    18     6     7   1
    19     7     8   1
    20     8     9   1
    21     9    16   1
    22     9    10   1
    23    10    12   1
    24    10    11   1
    25    11    22   1
    26    12    13   1
    27    13    15   1
    28    13    14   1
    29    15    21   1
    30    15    20   1
    31    15    16   1
    32    16    18   1
    33    16    17   1
    34    18    19   1
    35    20    19   1
    36    20    23   1
    37    23    26   2
    38    23    24   1
    39    24    25   1
    40    25    27   1
    41    27    28   2
    42    27    26   1
    43     1    38   1
    44     1    39   1
    45     2    40   1
    46     2    41   1
    47     3    42   1
    48     5    43   1
    49     5    44   1
    50     6    45   1
    51     7    46   1
    52     7    47   1
    53     8    48   1
    54     8    49   1
    55     9    50   1
    56    10    51   1
    57    12    52   1
    58    12    53   1
    59    13    54   1
    60    14    55   1
    61    17    56   1
    62    18    57   1
    63    18    58   1
    64    19    59   1
    65    19    60   1
    66    20    61   1
    67    21    62   1
    68    21    63   1
    69    21    64   1
    70    22    65   1
    71    22    66   1
    72    22    67   1
    73    24    68   1
    74    24    69   1
    75    26    70   1
    76    29    71   1
    77    30    72   1
    78    30    73   1
    79    31    74   1
    80    32    75   1
    81    33    76   1
    82    34    77   1
    83    35    78   1
    84    37    79   1
    85    37    80   1
    86    37    81   1
@<TRIPOS>SUBSTRUCTURE
     1  DGX      1

