@<TRIPOS>MOLECULE
1igj_ligand_080
    81    86
SMALL
GAST_HUCK
****
This file was generated by PARSER (from files_GN.cpp)

@<TRIPOS>ATOM
      1 C1        -11.7560   27.0839   30.8886 C.3         1 DGX      -0.0448
      2 C2        -13.1138   27.8222   31.0479 C.3         1 DGX      -0.0260
      3 C3        -14.2955   26.9105   30.6160 C.3         1 DGX       0.0620
      4 O3        -14.4279   25.8873   31.6320 O.3         1 DGX      -0.3480
      5 C4        -14.0433   26.4382   29.1567 C.3         1 DGX      -0.0232
      6 C5        -12.6644   25.7259   28.9449 C.3         1 DGX      -0.0330
      7 C6        -12.5040   25.2477   27.4739 C.3         1 DGX      -0.0493
      8 C7        -12.1778   26.4045   26.5024 C.3         1 DGX      -0.0470
      9 C8        -10.9418   27.2600   26.9471 C.3         1 DGX      -0.0079
     10 C9        -11.0709   27.7419   28.4387 C.3         1 DGX      -0.0276
     11 C10       -11.4112   26.5590   29.4435 C.3         1 DGX      -0.0258
     12 C11        -9.8072   28.5904   28.8069 C.3         1 DGX      -0.0223
     13 C12        -9.6034   29.7993   27.8593 C.3         1 DGX       0.0664
     14 O12        -8.4891   30.5676   28.3156 O.3         1 DGX      -0.3909
     15 C13        -9.4599   29.4005   26.3314 C.3         1 DGX       0.0405
     16 C14       -10.6220   28.4217   25.9319 C.3         1 DGX       0.0799
     17 O14       -10.2628   27.7572   24.7071 O.3         1 DGX      -0.3874
     18 C15       -11.8124   29.3882   25.6729 C.3         1 DGX      -0.0200
     19 C16       -11.2640   30.8041   25.3915 C.3         1 DGX      -0.0318
     20 C17        -9.7242   30.6623   25.4176 C.3         1 DGX       0.0177
     21 C18        -8.0291   28.7991   26.0967 C.3         1 DGX      -0.0516
     22 C19       -10.1765   25.5953   29.5738 C.3         1 DGX      -0.0590
     23 C20        -9.1686   30.6719   24.0503 C.2         1 DGX      -0.0063
     24 C21        -8.0702   31.5245   23.6662 C.3         1 DGX       0.1204
     25 O21        -7.8466   31.1695   22.3078 O.3         1 DGX      -0.2665
     26 C22        -9.5616   29.9774   22.9774 C.2         1 DGX       0.0017
     27 C23        -8.7466   30.2352   21.9369 C.2         1 DGX       0.2187
     28 O23        -8.7951   29.6415   20.7255 O.2         1 DGX      -0.3870
     29 C1X       -15.3202   24.7571   31.5558 C.3         1 DGX       0.1624
     30 C2X       -16.8017   25.0530   31.1905 C.3         1 DGX       0.0270
     31 C3X       -17.6262   23.7415   31.0183 C.3         1 DGX       0.0881
     32 O3X       -17.9549   23.2070   32.3040 O.3         1 DGX      -0.3890
     33 C4X       -16.8840   22.6655   30.1701 C.3         1 DGX       0.1070
     34 O4X       -17.5536   21.4094   30.2644 O.3         1 DGX      -0.3867
     35 C5X       -15.4088   22.5069   30.6432 C.3         1 DGX       0.0871
     36 O5X       -14.7468   23.7854   30.6647 O.3         1 DGX      -0.3456
     37 C6X       -14.5717   21.5733   29.7417 C.3         1 DGX      -0.0361
     38 H1        -10.9657   27.7256   31.2740 H           1 DGX       0.0271
     39 H2        -11.8007   26.2274   31.5602 H           1 DGX       0.0271
     40 H3        -13.1174   28.7442   30.4628 H           1 DGX       0.0290
     41 H4        -13.2412   28.1083   32.0957 H           1 DGX       0.0290
     42 H5        -15.2102   27.5093   30.6346 H           1 DGX       0.0597
     43 H6        -14.1015   27.3142   28.5072 H           1 DGX       0.0293
     44 H7        -14.8518   25.7723   28.8504 H           1 DGX       0.0293
     45 H8        -12.7154   24.8174   29.5500 H           1 DGX       0.0307
     46 H9        -13.4192   24.7491   27.1404 H           1 DGX       0.0268
     47 H10       -11.7082   24.5005   27.4133 H           1 DGX       0.0268
     48 H11       -13.0618   27.0380   26.4016 H           1 DGX       0.0269
     49 H12       -11.9908   25.9560   25.5254 H           1 DGX       0.0269
     50 H13       -10.0767   26.5945   26.8971 H           1 DGX       0.0332
     51 H14       -11.9162   28.4288   28.4805 H           1 DGX       0.0310
     52 H15        -8.9111   27.9700   28.7906 H           1 DGX       0.0293
     53 H16        -9.9038   28.9937   29.8156 H           1 DGX       0.0293
     54 H17       -10.4750   30.4414   27.9945 H           1 DGX       0.0602
     55 H18        -8.7154   30.8486   29.2297 H           1 DGX       0.2098
     56 H19       -11.0615   27.3042   24.3735 H           1 DGX       0.2102
     57 H20       -12.4754   29.4406   26.5382 H           1 DGX       0.0295
     58 H21       -12.3977   29.0222   24.8312 H           1 DGX       0.0295
     59 H22       -11.5877   31.4952   26.1742 H           1 DGX       0.0301
     60 H23       -11.6460   31.2031   24.4484 H           1 DGX       0.0301
     61 H24        -9.3152   31.5418   25.9257 H           1 DGX       0.0550
     62 H25        -7.2561   29.5288   26.3404 H           1 DGX       0.0239
     63 H26        -7.8909   28.5226   25.0538 H           1 DGX       0.0239
     64 H27        -7.8667   27.9049   26.6981 H           1 DGX       0.0239
     65 H28       -10.4408   24.7147   30.1503 H           1 DGX       0.0235
     66 H29        -9.3481   26.0872   30.0791 H           1 DGX       0.0235
     67 H30        -9.8071   25.2374   28.6176 H           1 DGX       0.0235
     68 H31        -7.1838   31.3152   24.2644 H           1 DGX       0.0859
     69 H32        -8.3488   32.5791   23.7415 H           1 DGX       0.0859
     70 H33       -10.3542   29.3871   22.9141 H           1 DGX       0.0295
     71 H34       -15.3098   24.3397   32.5679 H           1 DGX       0.0910
     72 H35       -16.8465   25.6173   30.2574 H           1 DGX       0.0340
     73 H36       -17.2541   25.6701   31.9710 H           1 DGX       0.0340
     74 H37       -18.5706   23.9842   30.5250 H           1 DGX       0.0621
     75 H38       -18.5674   22.4599   32.1219 H           1 DGX       0.2099
     76 H39       -16.8928   22.9736   29.1214 H           1 DGX       0.0645
     77 H40       -18.4935   21.5812   30.0482 H           1 DGX       0.2100
     78 H41       -15.3946   22.0819   31.6525 H           1 DGX       0.0621
     79 H42       -13.5517   21.4930   30.1310 H           1 DGX       0.0255
     80 H43       -14.5272   21.9655   28.7232 H           1 DGX       0.0255
     81 H44       -15.0084   20.5730   29.7199 H           1 DGX       0.0255
@<TRIPOS>BOND
     1    11     1   1
     2     1     2   1
     3     2     3   1
     4     3     5   1
     5     3     4   1
     6     4    29   1
     7    29    36   1
     8    29    30   1
     9    30    31   1
    10    31    33   1
    11    31    32   1
    12    33    35   1
    13    33    34   1
    14    35    37   1
    15    36    35   1
    16     5     6   1
    17    11     6   1
    18     6     7   1
    19     7     8   1
    20     8     9   1
    21     9    16   1
    22     9    10   1
    23    10    12   1
    24    10    11   1
    25    11    22   1
    26    12    13   1
    27    13    15   1
    28    13    14   1
    29    15    21   1
    30    15    20   1
    31    15    16   1
    32    16    18   1
    33    16    17   1
    34    18    19   1
    35    20    19   1
    36    20    23   1
    37    23    26   2
    38    23    24   1
    39    24    25   1
    40    25    27   1
    41    27    28   2
    42    27    26   1
    43     1    38   1
    44     1    39   1
    45     2    40   1
    46     2    41   1
    47     3    42   1
    48     5    43   1
    49     5    44   1
    50     6    45   1
    51     7    46   1
    52     7    47   1
    53     8    48   1
    54     8    49   1
    55     9    50   1
    56    10    51   1
    57    12    52   1
    58    12    53   1
    59    13    54   1
    60    14    55   1
    61    17    56   1
    62    18    57   1
    63    18    58   1
    64    19    59   1
    65    19    60   1
    66    20    61   1
    67    21    62   1
    68    21    63   1
    69    21    64   1
    70    22    65   1
    71    22    66   1
    72    22    67   1
    73    24    68   1
    74    24    69   1
    75    26    70   1
    76    29    71   1
    77    30    72   1
    78    30    73   1
    79    31    74   1
    80    32    75   1
    81    33    76   1
    82    34    77   1
    83    35    78   1
    84    37    79   1
    85    37    80   1
    86    37    81   1
@<TRIPOS>SUBSTRUCTURE
     1  DGX      1

