@<TRIPOS>MOLECULE
1igj_ligand_072
    81    86
SMALL
GAST_HUCK
****
This file was generated by PARSER (from files_GN.cpp)

@<TRIPOS>ATOM
      1 C1        -11.0677   28.4879   29.3693 C.3         1 DGX      -0.0448
      2 C2        -10.6415   27.0088   29.5318 C.3         1 DGX      -0.0260
      3 C3        -11.2919   26.1067   28.4543 C.3         1 DGX       0.0620
      4 O3        -10.7964   26.4697   27.1444 O.3         1 DGX      -0.3480
      5 C4        -12.8329   26.2810   28.4579 C.3         1 DGX      -0.0232
      6 C5        -13.2793   27.7798   28.3106 C.3         1 DGX      -0.0330
      7 C6        -14.8333   27.8962   28.2744 C.3         1 DGX      -0.0493
      8 C7        -15.4839   27.6695   29.6601 C.3         1 DGX      -0.0470
      9 C8        -14.8778   28.5728   30.7832 C.3         1 DGX      -0.0079
     10 C9        -13.3050   28.4853   30.8092 C.3         1 DGX      -0.0276
     11 C10       -12.6269   28.7464   29.3854 C.3         1 DGX      -0.0258
     12 C11       -12.7537   29.3762   31.9670 C.3         1 DGX      -0.0223
     13 C12       -13.3750   29.0146   33.3389 C.3         1 DGX       0.0664
     14 O12       -12.7425   29.8194   34.3395 O.3         1 DGX      -0.3909
     15 C13       -14.9520   29.1218   33.3977 C.3         1 DGX       0.0405
     16 C14       -15.5838   28.3415   32.1796 C.3         1 DGX       0.0799
     17 O14       -16.9555   28.7405   31.9876 O.3         1 DGX      -0.3874
     18 C15       -15.6235   26.8734   32.6734 C.3         1 DGX      -0.0200
     19 C16       -16.0531   26.9787   34.1446 C.3         1 DGX      -0.0318
     20 C17       -15.4772   28.3277   34.6778 C.3         1 DGX       0.0177
     21 C18       -15.3680   30.6404   33.3464 C.3         1 DGX      -0.0516
     22 C19       -12.7979   30.2442   28.9264 C.3         1 DGX      -0.0590
     23 C20       -16.3402   29.0554   35.6273 C.2         1 DGX      -0.0063
     24 C21       -17.7700   28.9045   35.8308 C.3         1 DGX       0.1204
     25 O21       -18.0515   29.8879   36.8238 O.3         1 DGX      -0.2665
     26 C22       -15.8863   29.9993   36.4584 C.2         1 DGX       0.0017
     27 C23       -16.9115   30.5152   37.1706 C.2         1 DGX       0.2187
     28 O23       -16.8170   31.5027   38.0863 O.2         1 DGX      -0.3870
     29 C1X       -10.3189   25.4506   26.2446 C.3         1 DGX       0.1624
     30 C2X        -8.8045   25.2097   26.4814 C.3         1 DGX       0.0270
     31 C3X        -8.2756   24.1193   25.5125 C.3         1 DGX       0.0881
     32 O3X        -8.2965   24.5973   24.1668 O.3         1 DGX      -0.3890
     33 C4X        -9.1205   22.8263   25.6588 C.3         1 DGX       0.1070
     34 O4X        -8.6786   21.8256   24.7386 O.3         1 DGX      -0.3867
     35 C5X       -10.6330   23.1512   25.4653 C.3         1 DGX       0.0871
     36 O5X       -11.0653   24.2167   26.3404 O.3         1 DGX      -0.3456
     37 C6X       -11.5254   21.9257   25.7525 C.3         1 DGX      -0.0361
     38 H1        -10.5630   29.0757   30.1356 H           1 DGX       0.0271
     39 H2        -10.6513   28.8282   28.4160 H           1 DGX       0.0271
     40 H3        -10.9178   26.6537   30.5262 H           1 DGX       0.0290
     41 H4         -9.5533   26.9342   29.4505 H           1 DGX       0.0290
     42 H5        -11.0512   25.0689   28.7115 H           1 DGX       0.0597
     43 H6        -13.2222   25.8480   29.3814 H           1 DGX       0.0293
     44 H7        -13.2470   25.6945   27.6316 H           1 DGX       0.0293
     45 H8        -12.9345   28.0930   27.3172 H           1 DGX       0.0307
     46 H9        -15.2412   27.1709   27.5654 H           1 DGX       0.0268
     47 H10       -15.1201   28.8835   27.9060 H           1 DGX       0.0268
     48 H11       -15.3768   26.6169   29.9232 H           1 DGX       0.0269
     49 H12       -16.5535   27.8706   29.5647 H           1 DGX       0.0269
     50 H13       -15.1288   29.5985   30.5034 H           1 DGX       0.0332
     51 H14       -13.0629   27.4597   31.0929 H           1 DGX       0.0310
     52 H15       -12.9303   30.4308   31.7582 H           1 DGX       0.0293
     53 H16       -11.6762   29.2369   32.0610 H           1 DGX       0.0293
     54 H17       -13.0700   27.9842   33.5472 H           1 DGX       0.0602
     55 H18       -13.0432   29.4589   35.2006 H           1 DGX       0.2098
     56 H19       -17.3938   28.6677   32.8625 H           1 DGX       0.2102
     57 H20       -14.6406   26.4014   32.6047 H           1 DGX       0.0295
     58 H21       -16.3384   26.2681   32.1082 H           1 DGX       0.0295
     59 H22       -15.6793   26.1235   34.7156 H           1 DGX       0.0301
     60 H23       -17.1447   26.9454   34.1738 H           1 DGX       0.0301
     61 H24       -14.6233   28.0238   35.2942 H           1 DGX       0.0550
     62 H25       -14.8768   31.2155   34.1322 H           1 DGX       0.0239
     63 H26       -16.4448   30.7594   33.4760 H           1 DGX       0.0239
     64 H27       -15.1057   31.0985   32.3931 H           1 DGX       0.0239
     65 H28       -12.4332   30.3846   27.9059 H           1 DGX       0.0235
     66 H29       -12.2291   30.9200   29.5670 H           1 DGX       0.0235
     67 H30       -13.8339   30.5741   28.9399 H           1 DGX       0.0235
     68 H31       -18.0205   27.9117   36.2096 H           1 DGX       0.0859
     69 H32       -18.3287   29.1206   34.9195 H           1 DGX       0.0859
     70 H33       -14.9442   30.3079   36.5262 H           1 DGX       0.0295
     71 H34       -10.4546   25.8604   25.2392 H           1 DGX       0.0910
     72 H35        -8.6398   24.8880   27.5140 H           1 DGX       0.0340
     73 H36        -8.2569   26.1431   26.3354 H           1 DGX       0.0340
     74 H37        -7.2352   23.9018   25.7555 H           1 DGX       0.0621
     75 H38        -7.8064   23.9251   23.6463 H           1 DGX       0.2099
     76 H39        -8.9654   22.4290   26.6666 H           1 DGX       0.0645
     77 H40        -8.9031   22.1660   23.8467 H           1 DGX       0.2100
     78 H41       -10.8036   23.4533   24.4278 H           1 DGX       0.0621
     79 H42       -12.5769   22.1927   25.6209 H           1 DGX       0.0255
     80 H43       -11.3766   21.5812   26.7800 H           1 DGX       0.0255
     81 H44       -11.2832   21.1116   25.0635 H           1 DGX       0.0255
@<TRIPOS>BOND
     1    11     1   1
     2     1     2   1
     3     2     3   1
     4     3     5   1
     5     3     4   1
     6     4    29   1
     7    29    36   1
     8    29    30   1
     9    30    31   1
    10    31    33   1
    11    31    32   1
    12    33    35   1
    13    33    34   1
    14    35    37   1
    15    36    35   1
    16     5     6   1
    17    11     6   1
    18     6     7   1
    19     7     8   1
    20     8     9   1
    21     9    16   1
    22     9    10   1
    23    10    12   1
    24    10    11   1
    25    11    22   1
    26    12    13   1
    27    13    15   1
    28    13    14   1
    29    15    21   1
    30    15    20   1
    31    15    16   1
    32    16    18   1
    33    16    17   1
    34    18    19   1
    35    20    19   1
    36    20    23   1
    37    23    26   2
    38    23    24   1
    39    24    25   1
    40    25    27   1
    41    27    28   2
    42    27    26   1
    43     1    38   1
    44     1    39   1
    45     2    40   1
    46     2    41   1
    47     3    42   1
    48     5    43   1
    49     5    44   1
    50     6    45   1
    51     7    46   1
    52     7    47   1
    53     8    48   1
    54     8    49   1
    55     9    50   1
    56    10    51   1
    57    12    52   1
    58    12    53   1
    59    13    54   1
    60    14    55   1
    61    17    56   1
    62    18    57   1
    63    18    58   1
    64    19    59   1
    65    19    60   1
    66    20    61   1
    67    21    62   1
    68    21    63   1
    69    21    64   1
    70    22    65   1
    71    22    66   1
    72    22    67   1
    73    24    68   1
    74    24    69   1
    75    26    70   1
    76    29    71   1
    77    30    72   1
    78    30    73   1
    79    31    74   1
    80    32    75   1
    81    33    76   1
    82    34    77   1
    83    35    78   1
    84    37    79   1
    85    37    80   1
    86    37    81   1
@<TRIPOS>SUBSTRUCTURE
     1  DGX      1

