@<TRIPOS>MOLECULE
1igj_ligand_004
    81    86
SMALL
GAST_HUCK
****
This file was generated by PARSER (from files_GN.cpp)

@<TRIPOS>ATOM
      1 C1        -14.8181   28.8318   28.4309 C.3         1 DGX      -0.0448
      2 C2        -13.8664   27.9048   29.2269 C.3         1 DGX      -0.0260
      3 C3        -14.5639   27.2944   30.4692 C.3         1 DGX       0.0620
      4 O3        -15.5535   26.2770   30.1730 O.3         1 DGX      -0.3480
      5 C4        -15.2416   28.3849   31.3299 C.3         1 DGX      -0.0232
      6 C5        -16.1803   29.3374   30.5165 C.3         1 DGX      -0.0330
      7 C6        -16.8327   30.3951   31.4548 C.3         1 DGX      -0.0493
      8 C7        -15.8236   31.4605   31.9466 C.3         1 DGX      -0.0470
      9 C8        -15.0229   32.1439   30.7917 C.3         1 DGX      -0.0079
     10 C9        -14.4211   31.0938   29.7809 C.3         1 DGX      -0.0276
     11 C10       -15.4682   30.0044   29.2671 C.3         1 DGX      -0.0258
     12 C11       -13.6512   31.8497   28.6515 C.3         1 DGX      -0.0223
     13 C12       -12.5573   32.7947   29.2159 C.3         1 DGX       0.0664
     14 O12       -11.8331   33.3755   28.1280 O.3         1 DGX      -0.3909
     15 C13       -13.0812   33.8836   30.2401 C.3         1 DGX       0.0405
     16 C14       -13.9691   33.1882   31.3435 C.3         1 DGX       0.0799
     17 O14       -14.7296   34.1778   32.0605 O.3         1 DGX      -0.3874
     18 C15       -12.9325   32.6156   32.3465 C.3         1 DGX      -0.0200
     19 C16       -11.7980   33.6506   32.3936 C.3         1 DGX      -0.0318
     20 C17       -11.8405   34.4634   31.0550 C.3         1 DGX       0.0177
     21 C18       -13.9285   34.9606   29.4620 C.3         1 DGX      -0.0516
     22 C19       -16.5427   30.6481   28.3153 C.3         1 DGX      -0.0590
     23 C20       -11.7401   35.9350   31.1999 C.2         1 DGX      -0.0063
     24 C21       -11.9133   36.7399   32.3924 C.3         1 DGX       0.1204
     25 O21       -11.7250   38.0688   31.9116 O.3         1 DGX      -0.2665
     26 C22       -11.4080   36.7449   30.1917 C.2         1 DGX       0.0017
     27 C23       -11.4273   38.0310   30.6057 C.2         1 DGX       0.2187
     28 O23       -11.2033   39.1143   29.8263 O.2         1 DGX      -0.3870
     29 C1X       -15.1854   24.9701   29.6820 C.3         1 DGX       0.1624
     30 C2X       -13.9910   24.3017   30.4242 C.3         1 DGX       0.0270
     31 C3X       -13.8201   22.8159   30.0550 C.3         1 DGX       0.0881
     32 O3X       -13.3120   22.6825   28.7271 O.3         1 DGX      -0.3890
     33 C4X       -15.1625   22.0597   30.2407 C.3         1 DGX       0.1070
     34 O4X       -15.0117   20.7076   29.8092 O.3         1 DGX      -0.3867
     35 C5X       -16.3168   22.7838   29.4867 C.3         1 DGX       0.0871
     36 O5X       -16.3775   24.1784   29.8691 O.3         1 DGX      -0.3456
     37 C6X       -17.6905   22.1459   29.8033 C.3         1 DGX      -0.0361
     38 H1        -14.2766   29.2202   27.5681 H           1 DGX       0.0271
     39 H2        -15.6104   28.1932   28.0220 H           1 DGX       0.0271
     40 H3        -12.9798   28.4628   29.5407 H           1 DGX       0.0290
     41 H4        -13.5158   27.1025   28.5730 H           1 DGX       0.0290
     42 H5        -13.7883   26.8774   31.1152 H           1 DGX       0.0597
     43 H6        -14.4524   28.9535   31.8240 H           1 DGX       0.0293
     44 H7        -15.8152   27.8946   32.1207 H           1 DGX       0.0293
     45 H8        -16.9972   28.7079   30.1501 H           1 DGX       0.0307
     46 H9        -17.2755   29.8973   32.3211 H           1 DGX       0.0268
     47 H10       -17.6490   30.8961   30.9333 H           1 DGX       0.0268
     48 H11       -15.1385   30.9885   32.6491 H           1 DGX       0.0269
     49 H12       -16.3808   32.2174   32.5046 H           1 DGX       0.0269
     50 H13       -15.7567   32.7280   30.2343 H           1 DGX       0.0332
     51 H14       -13.6558   30.5485   30.3279 H           1 DGX       0.0310
     52 H15       -14.3406   32.4238   28.0351 H           1 DGX       0.0293
     53 H16       -13.1517   31.1360   27.9959 H           1 DGX       0.0293
     54 H17       -11.8326   32.1534   29.7251 H           1 DGX       0.0602
     55 H18       -12.5041   33.8092   27.5623 H           1 DGX       0.2098
     56 H19       -14.0905   34.8373   32.3994 H           1 DGX       0.2102
     57 H20       -12.5336   31.6571   32.0101 H           1 DGX       0.0295
     58 H21       -13.3635   32.4705   33.3405 H           1 DGX       0.0295
     59 H22       -10.8364   33.1473   32.5257 H           1 DGX       0.0301
     60 H23       -11.9538   34.2654   33.2795 H           1 DGX       0.0301
     61 H24       -10.9132   34.2029   30.5380 H           1 DGX       0.0550
     62 H25       -13.3479   35.4269   28.6700 H           1 DGX       0.0239
     63 H26       -14.2697   35.7530   30.1303 H           1 DGX       0.0239
     64 H27       -14.8078   34.5334   28.9911 H           1 DGX       0.0239
     65 H28       -17.3320   29.9342   28.0747 H           1 DGX       0.0235
     66 H29       -16.0986   30.9590   27.3710 H           1 DGX       0.0235
     67 H30       -17.0199   31.5232   28.7514 H           1 DGX       0.0235
     68 H31       -11.1597   36.5045   33.1503 H           1 DGX       0.0859
     69 H32       -12.9177   36.6260   32.8062 H           1 DGX       0.0859
     70 H33       -11.2243   36.4692   29.2566 H           1 DGX       0.0295
     71 H34       -14.9693   25.0524   28.6132 H           1 DGX       0.0910
     72 H35       -14.1528   24.3869   31.5028 H           1 DGX       0.0340
     73 H36       -13.0603   24.8249   30.1822 H           1 DGX       0.0340
     74 H37       -13.0744   22.3811   30.7224 H           1 DGX       0.0621
     75 H38       -13.9835   23.0850   28.1409 H           1 DGX       0.2099
     76 H39       -15.3989   22.0410   31.3092 H           1 DGX       0.0645
     77 H40       -14.3631   20.3230   30.4369 H           1 DGX       0.2100
     78 H41       -16.1561   22.7138   28.4070 H           1 DGX       0.0621
     79 H42       -18.4849   22.6811   29.2820 H           1 DGX       0.0255
     80 H43       -17.8870   22.1833   30.8766 H           1 DGX       0.0255
     81 H44       -17.7169   21.1051   29.4806 H           1 DGX       0.0255
@<TRIPOS>BOND
     1    11     1   1
     2     1     2   1
     3     2     3   1
     4     3     5   1
     5     3     4   1
     6     4    29   1
     7    29    36   1
     8    29    30   1
     9    30    31   1
    10    31    33   1
    11    31    32   1
    12    33    35   1
    13    33    34   1
    14    35    37   1
    15    36    35   1
    16     5     6   1
    17    11     6   1
    18     6     7   1
    19     7     8   1
    20     8     9   1
    21     9    16   1
    22     9    10   1
    23    10    12   1
    24    10    11   1
    25    11    22   1
    26    12    13   1
    27    13    15   1
    28    13    14   1
    29    15    21   1
    30    15    20   1
    31    15    16   1
    32    16    18   1
    33    16    17   1
    34    18    19   1
    35    20    19   1
    36    20    23   1
    37    23    26   2
    38    23    24   1
    39    24    25   1
    40    25    27   1
    41    27    28   2
    42    27    26   1
    43     1    38   1
    44     1    39   1
    45     2    40   1
    46     2    41   1
    47     3    42   1
    48     5    43   1
    49     5    44   1
    50     6    45   1
    51     7    46   1
    52     7    47   1
    53     8    48   1
    54     8    49   1
    55     9    50   1
    56    10    51   1
    57    12    52   1
    58    12    53   1
    59    13    54   1
    60    14    55   1
    61    17    56   1
    62    18    57   1
    63    18    58   1
    64    19    59   1
    65    19    60   1
    66    20    61   1
    67    21    62   1
    68    21    63   1
    69    21    64   1
    70    22    65   1
    71    22    66   1
    72    22    67   1
    73    24    68   1
    74    24    69   1
    75    26    70   1
    76    29    71   1
    77    30    72   1
    78    30    73   1
    79    31    74   1
    80    32    75   1
    81    33    76   1
    82    34    77   1
    83    35    78   1
    84    37    79   1
    85    37    80   1
    86    37    81   1
@<TRIPOS>SUBSTRUCTURE
     1  DGX      1

