@<TRIPOS>MOLECULE
1igj_ligand_010
    81    86
SMALL
GAST_HUCK
****
This file was generated by PARSER (from files_GN.cpp)

@<TRIPOS>ATOM
      1 C1        -13.4472   26.9941   28.3507 C.3         1 DGX      -0.0448
      2 C2        -13.0925   27.2603   26.8682 C.3         1 DGX      -0.0260
      3 C3        -11.5654   27.5087   26.7013 C.3         1 DGX       0.0620
      4 O3        -10.7123   26.3805   27.0040 O.3         1 DGX      -0.3480
      5 C4        -11.1277   28.6856   27.6187 C.3         1 DGX      -0.0232
      6 C5        -11.5119   28.4652   29.1255 C.3         1 DGX      -0.0330
      7 C6        -11.0243   29.6475   30.0226 C.3         1 DGX      -0.0493
      8 C7        -11.8770   30.9293   29.8526 C.3         1 DGX      -0.0470
      9 C8        -13.4126   30.6858   30.0324 C.3         1 DGX      -0.0079
     10 C9        -13.8987   29.4866   29.1364 C.3         1 DGX      -0.0276
     11 C10       -13.0499   28.1503   29.3492 C.3         1 DGX      -0.0258
     12 C11       -15.4425   29.3063   29.2804 C.3         1 DGX      -0.0223
     13 C12       -16.2210   30.6100   28.9833 C.3         1 DGX       0.0664
     14 O12       -17.6264   30.3470   29.0734 O.3         1 DGX      -0.3909
     15 C13       -15.8186   31.8408   29.8952 C.3         1 DGX       0.0405
     16 C14       -14.2502   32.0187   29.8828 C.3         1 DGX       0.0799
     17 O14       -13.8320   32.8564   30.9786 O.3         1 DGX      -0.3874
     18 C15       -13.9884   32.8248   28.5841 C.3         1 DGX      -0.0200
     19 C16       -15.1459   33.8346   28.5006 C.3         1 DGX      -0.0318
     20 C17       -16.3628   33.1776   29.2224 C.3         1 DGX       0.0177
     21 C18       -16.3589   31.5821   31.3510 C.3         1 DGX      -0.0516
     22 C19       -13.2703   27.5398   30.7862 C.3         1 DGX      -0.0590
     23 C20       -17.1560   34.1046   30.0563 C.2         1 DGX      -0.0063
     24 C21       -16.6650   35.1169   30.9793 C.3         1 DGX       0.1204
     25 O21       -17.8675   35.6121   31.5638 O.3         1 DGX      -0.2665
     26 C22       -18.4880   34.0696   30.1269 C.2         1 DGX       0.0017
     27 C23       -18.9284   34.9770   31.0298 C.2         1 DGX       0.2187
     28 O23       -20.2148   35.2051   31.3640 O.2         1 DGX      -0.3870
     29 C1X       -10.9511   25.1179   26.3481 C.3         1 DGX       0.1624
     30 C2X        -9.6329   24.6519   25.6766 C.3         1 DGX       0.0270
     31 C3X        -9.7572   23.1791   25.2000 C.3         1 DGX       0.0881
     32 O3X       -10.6861   23.1156   24.1151 O.3         1 DGX      -0.3890
     33 C4X       -10.2105   22.2765   26.3840 C.3         1 DGX       0.1070
     34 O4X       -10.3274   20.9140   25.9670 O.3         1 DGX      -0.3867
     35 C5X       -11.5330   22.8243   27.0054 C.3         1 DGX       0.0871
     36 O5X       -11.3629   24.2026   27.3793 O.3         1 DGX      -0.3456
     37 C6X       -11.9648   22.0635   28.2784 C.3         1 DGX      -0.0361
     38 H1        -14.5091   26.7594   28.4187 H           1 DGX       0.0271
     39 H2        -12.9275   26.0787   28.6450 H           1 DGX       0.0271
     40 H3        -13.6452   28.1231   26.4974 H           1 DGX       0.0290
     41 H4        -13.4070   26.4071   26.2688 H           1 DGX       0.0290
     42 H5        -11.3652   27.7891   25.6652 H           1 DGX       0.0597
     43 H6        -11.5789   29.6017   27.2385 H           1 DGX       0.0293
     44 H7        -10.0436   28.8082   27.5364 H           1 DGX       0.0293
     45 H8        -10.9356   27.5904   29.4499 H           1 DGX       0.0307
     46 H9         -9.9793   29.8827   29.7925 H           1 DGX       0.0268
     47 H10       -11.0487   29.3463   31.0727 H           1 DGX       0.0268
     48 H11       -11.6723   31.3443   28.8635 H           1 DGX       0.0269
     49 H12       -11.5321   31.6629   30.5874 H           1 DGX       0.0269
     50 H13       -13.5508   30.3805   31.0705 H           1 DGX       0.0332
     51 H14       -13.7426   29.8038   28.1031 H           1 DGX       0.0310
     52 H15       -15.6938   28.9463   30.2777 H           1 DGX       0.0293
     53 H16       -15.7943   28.5614   28.5657 H           1 DGX       0.0293
     54 H17       -16.0286   30.8514   27.9338 H           1 DGX       0.0602
     55 H18       -17.8253   29.6948   28.3631 H           1 DGX       0.2098
     56 H19       -14.3513   33.6815   30.9170 H           1 DGX       0.2102
     57 H20       -14.0009   32.1721   27.7113 H           1 DGX       0.0295
     58 H21       -13.0250   33.3434   28.6119 H           1 DGX       0.0295
     59 H22       -15.3685   34.0712   27.4564 H           1 DGX       0.0301
     60 H23       -14.8207   34.7567   28.9826 H           1 DGX       0.0301
     61 H24       -17.0357   32.9024   28.4016 H           1 DGX       0.0550
     62 H25       -17.4415   31.4545   31.3508 H           1 DGX       0.0239
     63 H26       -16.1296   32.4109   32.0175 H           1 DGX       0.0239
     64 H27       -15.9129   30.6923   31.7909 H           1 DGX       0.0239
     65 H28       -12.6088   26.6850   30.9543 H           1 DGX       0.0235
     66 H29       -14.2945   27.1808   30.9076 H           1 DGX       0.0235
     67 H30       -13.0757   28.2513   31.5833 H           1 DGX       0.0235
     68 H31       -16.1580   35.9354   30.4687 H           1 DGX       0.0859
     69 H32       -16.0228   34.6996   31.7538 H           1 DGX       0.0859
     70 H33       -19.0835   33.4498   29.6232 H           1 DGX       0.0295
     71 H34       -11.7227   25.1931   25.5758 H           1 DGX       0.0910
     72 H35        -8.8058   24.7354   26.3905 H           1 DGX       0.0340
     73 H36        -9.4109   25.3058   24.8272 H           1 DGX       0.0340
     74 H37        -8.7859   22.8409   24.8331 H           1 DGX       0.0621
     75 H38       -10.6870   22.1838   23.8128 H           1 DGX       0.2099
     76 H39        -9.4252   22.2979   27.1463 H           1 DGX       0.0645
     77 H40       -11.2859   20.7200   25.9245 H           1 DGX       0.2100
     78 H41       -12.3434   22.7470   26.2734 H           1 DGX       0.0621
     79 H42       -12.9373   22.4222   28.6154 H           1 DGX       0.0255
     80 H43       -11.2446   22.2340   29.0771 H           1 DGX       0.0255
     81 H44       -12.0338   20.9916   28.0943 H           1 DGX       0.0255
@<TRIPOS>BOND
     1    11     1   1
     2     1     2   1
     3     2     3   1
     4     3     5   1
     5     3     4   1
     6     4    29   1
     7    29    36   1
     8    29    30   1
     9    30    31   1
    10    31    33   1
    11    31    32   1
    12    33    35   1
    13    33    34   1
    14    35    37   1
    15    36    35   1
    16     5     6   1
    17    11     6   1
    18     6     7   1
    19     7     8   1
    20     8     9   1
    21     9    16   1
    22     9    10   1
    23    10    12   1
    24    10    11   1
    25    11    22   1
    26    12    13   1
    27    13    15   1
    28    13    14   1
    29    15    21   1
    30    15    20   1
    31    15    16   1
    32    16    18   1
    33    16    17   1
    34    18    19   1
    35    20    19   1
    36    20    23   1
    37    23    26   2
    38    23    24   1
    39    24    25   1
    40    25    27   1
    41    27    28   2
    42    27    26   1
    43     1    38   1
    44     1    39   1
    45     2    40   1
    46     2    41   1
    47     3    42   1
    48     5    43   1
    49     5    44   1
    50     6    45   1
    51     7    46   1
    52     7    47   1
    53     8    48   1
    54     8    49   1
    55     9    50   1
    56    10    51   1
    57    12    52   1
    58    12    53   1
    59    13    54   1
    60    14    55   1
    61    17    56   1
    62    18    57   1
    63    18    58   1
    64    19    59   1
    65    19    60   1
    66    20    61   1
    67    21    62   1
    68    21    63   1
    69    21    64   1
    70    22    65   1
    71    22    66   1
    72    22    67   1
    73    24    68   1
    74    24    69   1
    75    26    70   1
    76    29    71   1
    77    30    72   1
    78    30    73   1
    79    31    74   1
    80    32    75   1
    81    33    76   1
    82    34    77   1
    83    35    78   1
    84    37    79   1
    85    37    80   1
    86    37    81   1
@<TRIPOS>SUBSTRUCTURE
     1  DGX      1

