@<TRIPOS>MOLECULE
1igj_ligand_025
    81    86
SMALL
GAST_HUCK
****
This file was generated by PARSER (from files_GN.cpp)

@<TRIPOS>ATOM
      1 C1        -11.7037   27.9329   29.2043 C.3         1 DGX      -0.0448
      2 C2        -11.7238   27.0376   30.4676 C.3         1 DGX      -0.0260
      3 C3        -13.1161   27.0199   31.1472 C.3         1 DGX       0.0620
      4 O3        -14.0480   26.2825   30.3229 O.3         1 DGX      -0.3480
      5 C4        -13.6502   28.4582   31.3837 C.3         1 DGX      -0.0232
      6 C5        -13.5798   29.3813   30.1177 C.3         1 DGX      -0.0330
      7 C6        -14.1209   30.8075   30.4382 C.3         1 DGX      -0.0493
      8 C7        -13.1525   31.6370   31.3139 C.3         1 DGX      -0.0470
      9 C8        -11.6856   31.6941   30.7704 C.3         1 DGX      -0.0079
     10 C9        -11.1583   30.2600   30.3851 C.3         1 DGX      -0.0276
     11 C10       -12.1468   29.4308   29.4448 C.3         1 DGX      -0.0258
     12 C11        -9.6960   30.3723   29.8532 C.3         1 DGX      -0.0223
     13 C12        -8.7507   31.0626   30.8702 C.3         1 DGX       0.0664
     14 O12        -7.4173   31.0640   30.3461 O.3         1 DGX      -0.3909
     15 C13        -9.1999   32.5186   31.3071 C.3         1 DGX       0.0405
     16 C14       -10.7234   32.5130   31.7251 C.3         1 DGX       0.0799
     17 O14       -11.2025   33.8713   31.7465 O.3         1 DGX      -0.3874
     18 C15       -10.6797   32.0499   33.2060 C.3         1 DGX      -0.0200
     19 C16        -9.4719   32.7877   33.8050 C.3         1 DGX      -0.0318
     20 C17        -8.4367   32.9160   32.6490 C.3         1 DGX       0.0177
     21 C18        -8.9296   33.5019   30.1085 C.3         1 DGX      -0.0516
     22 C19       -12.2429   30.0676   28.0085 C.3         1 DGX      -0.0590
     23 C20        -7.6890   34.1849   32.6987 C.2         1 DGX      -0.0063
     24 C21        -6.2433   34.2655   32.7691 C.3         1 DGX       0.1204
     25 O21        -6.0129   35.6716   32.7876 O.3         1 DGX      -0.2665
     26 C22        -8.1975   35.4187   32.6864 C.2         1 DGX       0.0017
     27 C23        -7.1917   36.3232   32.7361 C.2         1 DGX       0.2187
     28 O23        -7.3363   37.6650   32.7411 O.2         1 DGX      -0.3870
     29 C1X       -14.8152   25.2087   30.9100 C.3         1 DGX       0.1624
     30 C2X       -16.3087   25.4304   30.5690 C.3         1 DGX       0.0270
     31 C3X       -17.1556   24.1954   30.9757 C.3         1 DGX       0.0881
     32 O3X       -17.1995   24.0944   32.4012 O.3         1 DGX      -0.3890
     33 C4X       -16.5668   22.9028   30.3442 C.3         1 DGX       0.1070
     34 O4X       -17.2784   21.7528   30.8086 O.3         1 DGX      -0.3867
     35 C5X       -15.0460   22.7786   30.6723 C.3         1 DGX       0.0871
     36 O5X       -14.3338   23.9853   30.3157 O.3         1 DGX      -0.3456
     37 C6X       -14.3754   21.6137   29.9067 C.3         1 DGX      -0.0361
     38 H1        -10.7063   27.8849   28.7610 H           1 DGX       0.0271
     39 H2        -12.3758   27.4678   28.4735 H           1 DGX       0.0271
     40 H3        -10.9695   27.3911   31.1727 H           1 DGX       0.0290
     41 H4        -11.4501   26.0159   30.1893 H           1 DGX       0.0290
     42 H5        -12.9804   26.5513   32.1282 H           1 DGX       0.0597
     43 H6        -13.0804   28.8898   32.2081 H           1 DGX       0.0293
     44 H7        -14.6873   28.3866   31.7228 H           1 DGX       0.0293
     45 H8        -14.2798   28.9466   29.3972 H           1 DGX       0.0307
     46 H9        -15.0841   30.7293   30.9504 H           1 DGX       0.0268
     47 H10       -14.3102   31.3493   29.5099 H           1 DGX       0.0268
     48 H11       -13.1613   31.2186   32.3201 H           1 DGX       0.0269
     49 H12       -13.5593   32.6490   31.3865 H           1 DGX       0.0269
     50 H13       -11.7314   32.2729   29.8451 H           1 DGX       0.0332
     51 H14       -11.0793   29.7112   31.3231 H           1 DGX       0.0310
     52 H15        -9.6696   30.9124   28.9084 H           1 DGX       0.0293
     53 H16        -9.2922   29.3775   29.6699 H           1 DGX       0.0293
     54 H17        -8.7216   30.4107   31.7493 H           1 DGX       0.0602
     55 H18        -7.1708   30.1208   30.2346 H           1 DGX       0.2098
     56 H19       -12.0575   33.8592   32.2216 H           1 DGX       0.2102
     57 H20       -10.5307   30.9707   33.2835 H           1 DGX       0.0295
     58 H21       -11.5917   32.3080   33.7491 H           1 DGX       0.0295
     59 H22        -9.0710   32.2369   34.6623 H           1 DGX       0.0301
     60 H23        -9.8119   33.7646   34.1688 H           1 DGX       0.0301
     61 H24        -7.6859   32.1442   32.8607 H           1 DGX       0.0550
     62 H25        -7.8677   33.5257   29.8568 H           1 DGX       0.0239
     63 H26        -9.2279   34.5229   30.3398 H           1 DGX       0.0239
     64 H27        -9.4847   33.2090   29.2186 H           1 DGX       0.0239
     65 H28       -13.0046   29.5675   27.4098 H           1 DGX       0.0235
     66 H29       -11.2995   29.9744   27.4707 H           1 DGX       0.0235
     67 H30       -12.4990   31.1232   28.0334 H           1 DGX       0.0235
     68 H31        -5.7762   33.8142   31.8916 H           1 DGX       0.0859
     69 H32        -5.8608   33.8049   33.6820 H           1 DGX       0.0859
     70 H33        -9.1604   35.6537   32.6390 H           1 DGX       0.0295
     71 H34       -14.7124   25.1521   32.0008 H           1 DGX       0.0910
     72 H35       -16.4008   25.5992   29.4947 H           1 DGX       0.0340
     73 H36       -16.6796   26.3243   31.0778 H           1 DGX       0.0340
     74 H37       -18.1792   24.3396   30.6215 H           1 DGX       0.0621
     75 H38       -17.7749   23.3231   32.5878 H           1 DGX       0.2099
     76 H39       -16.6948   22.9538   29.2592 H           1 DGX       0.0645
     77 H40       -18.2228   21.8977   30.5844 H           1 DGX       0.2100
     78 H41       -14.9183   22.5907   31.7431 H           1 DGX       0.0621
     79 H42       -13.3274   21.5268   30.2015 H           1 DGX       0.0255
     80 H43       -14.4230   21.7955   28.8314 H           1 DGX       0.0255
     81 H44       -14.8757   20.6681   30.1253 H           1 DGX       0.0255
@<TRIPOS>BOND
     1    11     1   1
     2     1     2   1
     3     2     3   1
     4     3     5   1
     5     3     4   1
     6     4    29   1
     7    29    36   1
     8    29    30   1
     9    30    31   1
    10    31    33   1
    11    31    32   1
    12    33    35   1
    13    33    34   1
    14    35    37   1
    15    36    35   1
    16     5     6   1
    17    11     6   1
    18     6     7   1
    19     7     8   1
    20     8     9   1
    21     9    16   1
    22     9    10   1
    23    10    12   1
    24    10    11   1
    25    11    22   1
    26    12    13   1
    27    13    15   1
    28    13    14   1
    29    15    21   1
    30    15    20   1
    31    15    16   1
    32    16    18   1
    33    16    17   1
    34    18    19   1
    35    20    19   1
    36    20    23   1
    37    23    26   2
    38    23    24   1
    39    24    25   1
    40    25    27   1
    41    27    28   2
    42    27    26   1
    43     1    38   1
    44     1    39   1
    45     2    40   1
    46     2    41   1
    47     3    42   1
    48     5    43   1
    49     5    44   1
    50     6    45   1
    51     7    46   1
    52     7    47   1
    53     8    48   1
    54     8    49   1
    55     9    50   1
    56    10    51   1
    57    12    52   1
    58    12    53   1
    59    13    54   1
    60    14    55   1
    61    17    56   1
    62    18    57   1
    63    18    58   1
    64    19    59   1
    65    19    60   1
    66    20    61   1
    67    21    62   1
    68    21    63   1
    69    21    64   1
    70    22    65   1
    71    22    66   1
    72    22    67   1
    73    24    68   1
    74    24    69   1
    75    26    70   1
    76    29    71   1
    77    30    72   1
    78    30    73   1
    79    31    74   1
    80    32    75   1
    81    33    76   1
    82    34    77   1
    83    35    78   1
    84    37    79   1
    85    37    80   1
    86    37    81   1
@<TRIPOS>SUBSTRUCTURE
     1  DGX      1

