@<TRIPOS>MOLECULE
1igj_ligand_077
    81    86
SMALL
GAST_HUCK
****
This file was generated by PARSER (from files_GN.cpp)

@<TRIPOS>ATOM
      1 C1         -9.5562   26.6363   28.2006 C.3         1 DGX      -0.0448
      2 C2         -9.4228   26.0853   26.7539 C.3         1 DGX      -0.0260
      3 C3         -9.8088   27.1674   25.7145 C.3         1 DGX       0.0620
      4 O3         -8.7892   28.2010   25.7557 O.3         1 DGX      -0.3480
      5 C4        -11.2563   27.6467   26.0074 C.3         1 DGX      -0.0232
      6 C5        -11.4311   28.2073   27.4589 C.3         1 DGX      -0.0330
      7 C6        -12.8805   28.7451   27.6696 C.3         1 DGX      -0.0493
      8 C7        -13.9296   27.6136   27.7818 C.3         1 DGX      -0.0470
      9 C8        -13.5548   26.5835   28.8941 C.3         1 DGX      -0.0079
     10 C9        -12.0902   26.0385   28.7196 C.3         1 DGX      -0.0276
     11 C10       -10.9889   27.1871   28.5891 C.3         1 DGX      -0.0258
     12 C11       -11.7920   25.0018   29.8432 C.3         1 DGX      -0.0223
     13 C12       -12.8467   23.8767   29.9817 C.3         1 DGX       0.0664
     14 O12       -12.4438   23.0000   31.0369 O.3         1 DGX      -0.3909
     15 C13       -14.3268   24.3975   30.1898 C.3         1 DGX       0.0405
     16 C14       -14.6487   25.4541   29.0692 C.3         1 DGX       0.0799
     17 O14       -15.8728   26.1453   29.3742 O.3         1 DGX      -0.3874
     18 C15       -14.9142   24.5704   27.8267 C.3         1 DGX      -0.0200
     19 C16       -15.6065   23.2960   28.3623 C.3         1 DGX      -0.0318
     20 C17       -15.3310   23.2019   29.8950 C.3         1 DGX       0.0177
     21 C18       -14.4804   25.0333   31.6187 C.3         1 DGX      -0.0516
     22 C19       -10.7875   27.9728   29.9373 C.3         1 DGX      -0.0590
     23 C20       -16.5146   23.0677   30.7734 C.2         1 DGX      -0.0063
     24 C21       -17.9232   23.2569   30.4542 C.3         1 DGX       0.1204
     25 O21       -18.5748   23.0056   31.6952 O.3         1 DGX      -0.2665
     26 C22       -16.4274   22.7139   32.0590 C.2         1 DGX       0.0017
     27 C23       -17.6530   22.6874   32.6268 C.2         1 DGX       0.2187
     28 O23       -17.9273   22.3848   33.9138 O.2         1 DGX      -0.3870
     29 C1X        -8.9310   29.4673   25.0711 C.3         1 DGX       0.1624
     30 C2X        -9.3918   29.3734   23.5826 C.3         1 DGX       0.0270
     31 C3X        -9.5799   30.7878   22.9738 C.3         1 DGX       0.0881
     32 O3X        -8.3139   31.4155   22.7672 O.3         1 DGX      -0.3890
     33 C4X       -10.4831   31.6716   23.8826 C.3         1 DGX       0.1070
     34 O4X       -10.5416   33.0177   23.3917 O.3         1 DGX      -0.3867
     35 C5X        -9.9601   31.6584   25.3550 C.3         1 DGX       0.0871
     36 O5X        -9.8012   30.3138   25.8445 O.3         1 DGX      -0.3456
     37 C6X       -10.9056   32.3953   26.3334 C.3         1 DGX      -0.0361
     38 H1         -9.2304   25.8602   28.8974 H           1 DGX       0.0271
     39 H2         -8.8221   27.4423   28.2965 H           1 DGX       0.0271
     40 H3        -10.0486   25.2020   26.6270 H           1 DGX       0.0290
     41 H4         -8.3872   25.7727   26.5884 H           1 DGX       0.0290
     42 H5         -9.7794   26.7109   24.7273 H           1 DGX       0.0597
     43 H6        -11.9313   26.8161   25.8280 H           1 DGX       0.0293
     44 H7        -11.5201   28.4254   25.2948 H           1 DGX       0.0293
     45 H8        -10.7715   29.0926   27.5091 H           1 DGX       0.0307
     46 H9        -13.1508   29.4064   26.8431 H           1 DGX       0.0268
     47 H10       -12.9174   29.3519   28.5773 H           1 DGX       0.0268
     48 H11       -14.0350   27.1150   26.8156 H           1 DGX       0.0269
     49 H12       -14.8942   28.0770   28.0097 H           1 DGX       0.0269
     50 H13       -13.5797   27.1485   29.8242 H           1 DGX       0.0332
     51 H14       -12.0742   25.4737   27.7848 H           1 DGX       0.0310
     52 H15       -11.7158   25.5228   30.7918 H           1 DGX       0.0293
     53 H16       -10.8377   24.5154   29.6432 H           1 DGX       0.0293
     54 H17       -12.7788   23.2815   29.0650 H           1 DGX       0.0602
     55 H18       -12.9338   22.1591   30.8997 H           1 DGX       0.2098
     56 H19       -16.4368   25.4978   29.8339 H           1 DGX       0.2102
     57 H20       -13.9892   24.2944   27.3217 H           1 DGX       0.0295
     58 H21       -15.5309   25.0978   27.1002 H           1 DGX       0.0295
     59 H22       -15.2151   22.4140   27.8420 H           1 DGX       0.0301
     60 H23       -16.6710   23.3482   28.1471 H           1 DGX       0.0301
     61 H24       -14.8055   22.2495   30.0253 H           1 DGX       0.0550
     62 H25       -14.2840   24.2880   32.3904 H           1 DGX       0.0239
     63 H26       -15.4883   25.4132   31.7784 H           1 DGX       0.0239
     64 H27       -13.8014   25.8741   31.7690 H           1 DGX       0.0239
     65 H28       -10.1485   28.8438   29.7937 H           1 DGX       0.0235
     66 H29       -10.3014   27.3455   30.6812 H           1 DGX       0.0235
     67 H30       -11.7232   28.3270   30.3610 H           1 DGX       0.0235
     68 H31       -18.2778   22.5357   29.7155 H           1 DGX       0.0859
     69 H32       -18.1371   24.2747   30.1330 H           1 DGX       0.0859
     70 H33       -15.5838   22.5171   32.5428 H           1 DGX       0.0295
     71 H34        -7.9218   29.8914   25.0890 H           1 DGX       0.0910
     72 H35       -10.3418   28.8379   23.5167 H           1 DGX       0.0340
     73 H36        -8.6512   28.8163   22.9963 H           1 DGX       0.0340
     74 H37       -10.0499   30.6843   21.9974 H           1 DGX       0.0621
     75 H38        -7.8417   31.3718   23.6208 H           1 DGX       0.2099
     76 H39       -11.5027   31.2638   23.8605 H           1 DGX       0.0645
     77 H40       -10.5194   32.9363   22.4128 H           1 DGX       0.2100
     78 H41        -8.9999   32.1777   25.3901 H           1 DGX       0.0621
     79 H42       -10.4897   32.3672   27.3410 H           1 DGX       0.0255
     80 H43       -11.8834   31.9121   26.3510 H           1 DGX       0.0255
     81 H44       -11.0337   33.4411   26.0414 H           1 DGX       0.0255
@<TRIPOS>BOND
     1    11     1   1
     2     1     2   1
     3     2     3   1
     4     3     5   1
     5     3     4   1
     6     4    29   1
     7    29    36   1
     8    29    30   1
     9    30    31   1
    10    31    33   1
    11    31    32   1
    12    33    35   1
    13    33    34   1
    14    35    37   1
    15    36    35   1
    16     5     6   1
    17    11     6   1
    18     6     7   1
    19     7     8   1
    20     8     9   1
    21     9    16   1
    22     9    10   1
    23    10    12   1
    24    10    11   1
    25    11    22   1
    26    12    13   1
    27    13    15   1
    28    13    14   1
    29    15    21   1
    30    15    20   1
    31    15    16   1
    32    16    18   1
    33    16    17   1
    34    18    19   1
    35    20    19   1
    36    20    23   1
    37    23    26   2
    38    23    24   1
    39    24    25   1
    40    25    27   1
    41    27    28   2
    42    27    26   1
    43     1    38   1
    44     1    39   1
    45     2    40   1
    46     2    41   1
    47     3    42   1
    48     5    43   1
    49     5    44   1
    50     6    45   1
    51     7    46   1
    52     7    47   1
    53     8    48   1
    54     8    49   1
    55     9    50   1
    56    10    51   1
    57    12    52   1
    58    12    53   1
    59    13    54   1
    60    14    55   1
    61    17    56   1
    62    18    57   1
    63    18    58   1
    64    19    59   1
    65    19    60   1
    66    20    61   1
    67    21    62   1
    68    21    63   1
    69    21    64   1
    70    22    65   1
    71    22    66   1
    72    22    67   1
    73    24    68   1
    74    24    69   1
    75    26    70   1
    76    29    71   1
    77    30    72   1
    78    30    73   1
    79    31    74   1
    80    32    75   1
    81    33    76   1
    82    34    77   1
    83    35    78   1
    84    37    79   1
    85    37    80   1
    86    37    81   1
@<TRIPOS>SUBSTRUCTURE
     1  DGX      1

