@<TRIPOS>MOLECULE
1igj_ligand_022
    81    86
SMALL
GAST_HUCK
****
This file was generated by PARSER (from files_GN.cpp)

@<TRIPOS>ATOM
      1 C1        -17.0879   24.7502   32.7917 C.3         1 DGX      -0.0448
      2 C2        -18.3876   25.0277   31.9938 C.3         1 DGX      -0.0260
      3 C3        -18.9734   23.7110   31.4115 C.3         1 DGX       0.0620
      4 O3        -19.4140   22.7408   32.3967 O.3         1 DGX      -0.3480
      5 C4        -17.8966   23.0370   30.5175 C.3         1 DGX      -0.0232
      6 C5        -16.5466   22.7702   31.2665 C.3         1 DGX      -0.0330
      7 C6        -15.5152   22.0617   30.3345 C.3         1 DGX      -0.0493
      8 C7        -14.8931   23.0125   29.2834 C.3         1 DGX      -0.0470
      9 C8        -14.2772   24.3110   29.8990 C.3         1 DGX      -0.0079
     10 C9        -15.2874   25.0194   30.8775 C.3         1 DGX      -0.0276
     11 C10       -15.9334   24.0519   31.9702 C.3         1 DGX      -0.0258
     12 C11       -14.6236   26.3154   31.4467 C.3         1 DGX      -0.0223
     13 C12       -14.1412   27.2789   30.3313 C.3         1 DGX       0.0664
     14 O12       -13.6250   28.4560   30.9618 O.3         1 DGX      -0.3909
     15 C13       -13.1127   26.6451   29.3071 C.3         1 DGX       0.0405
     16 C14       -13.6736   25.2659   28.7879 C.3         1 DGX       0.0799
     17 O14       -12.6378   24.5368   28.1075 O.3         1 DGX      -0.3874
     18 C15       -14.6704   25.6849   27.6762 C.3         1 DGX      -0.0200
     19 C16       -14.0437   26.9028   26.9793 C.3         1 DGX      -0.0318
     20 C17       -13.0558   27.5456   27.9983 C.3         1 DGX       0.0177
     21 C18       -11.7296   26.4837   30.0388 C.3         1 DGX      -0.0516
     22 C19       -14.8810   23.5920   33.0431 C.3         1 DGX      -0.0590
     23 C20       -11.7307   27.8625   27.4331 C.2         1 DGX      -0.0063
     24 C21       -10.8950   27.0195   26.5915 C.3         1 DGX       0.1204
     25 O21        -9.7182   27.8104   26.4310 O.3         1 DGX      -0.2665
     26 C22       -11.0738   28.9996   27.6889 C.2         1 DGX       0.0017
     27 C23        -9.8651   28.9760   27.0894 C.2         1 DGX       0.2187
     28 O23        -8.9407   29.9591   27.1476 O.2         1 DGX      -0.3870
     29 C1X       -20.3986   23.1387   33.3745 C.3         1 DGX       0.1624
     30 C2X       -21.1745   21.8916   33.8736 C.3         1 DGX       0.0270
     31 C3X       -22.0330   22.2321   35.1226 C.3         1 DGX       0.0881
     32 O3X       -23.1133   23.1017   34.7740 O.3         1 DGX      -0.3890
     33 C4X       -21.1574   22.9023   36.2182 C.3         1 DGX       0.1070
     34 O4X       -21.9604   23.2887   37.3316 O.3         1 DGX      -0.3867
     35 C5X       -20.4063   24.1318   35.6284 C.3         1 DGX       0.0871
     36 O5X       -19.6657   23.7272   34.4650 O.3         1 DGX      -0.3456
     37 C6X       -19.3794   24.7521   36.6043 C.3         1 DGX      -0.0361
     38 H1        -16.7532   25.6846   33.2383 H           1 DGX       0.0271
     39 H2        -17.3539   24.1092   33.6345 H           1 DGX       0.0271
     40 H3        -18.1874   25.7319   31.1832 H           1 DGX       0.0290
     41 H4        -19.1203   25.5092   32.6415 H           1 DGX       0.0290
     42 H5        -19.8295   23.9634   30.7781 H           1 DGX       0.0597
     43 H6        -17.7213   23.6737   29.6532 H           1 DGX       0.0293
     44 H7        -18.2950   22.0913   30.1398 H           1 DGX       0.0293
     45 H8        -16.7992   22.0433   32.0450 H           1 DGX       0.0307
     46 H9        -15.9939   21.2250   29.8168 H           1 DGX       0.0268
     47 H10       -14.7111   21.6320   30.9353 H           1 DGX       0.0268
     48 H11       -15.6656   23.2687   28.5575 H           1 DGX       0.0269
     49 H12       -14.1166   22.4596   28.7477 H           1 DGX       0.0269
     50 H13       -13.4273   23.9850   30.5021 H           1 DGX       0.0332
     51 H14       -16.1131   25.3643   30.2562 H           1 DGX       0.0310
     52 H15       -13.7874   26.0607   32.0988 H           1 DGX       0.0293
     53 H16       -15.3409   26.8742   32.0468 H           1 DGX       0.0293
     54 H17       -15.0393   27.6023   29.7959 H           1 DGX       0.0602
     55 H18       -13.4092   29.0779   30.2362 H           1 DGX       0.2098
     56 H19       -11.9994   24.2569   28.7967 H           1 DGX       0.2102
     57 H20       -15.6331   25.9733   28.0993 H           1 DGX       0.0295
     58 H21       -14.8464   24.8790   26.9569 H           1 DGX       0.0295
     59 H22       -14.8272   27.6052   26.6825 H           1 DGX       0.0301
     60 H23       -13.5560   26.5679   26.0633 H           1 DGX       0.0301
     61 H24       -13.5035   28.5191   28.2314 H           1 DGX       0.0550
     62 H25       -11.3496   27.4472   30.3813 H           1 DGX       0.0239
     63 H26       -10.9714   26.0479   29.3937 H           1 DGX       0.0239
     64 H27       -11.8206   25.8299   30.9012 H           1 DGX       0.0239
     65 H28       -15.3046   22.8422   33.7151 H           1 DGX       0.0235
     66 H29       -14.5644   24.4311   33.6619 H           1 DGX       0.0235
     67 H30       -13.9985   23.1508   32.5888 H           1 DGX       0.0235
     68 H31       -11.3364   26.8392   25.6116 H           1 DGX       0.0859
     69 H32       -10.6463   26.0713   27.0675 H           1 DGX       0.0859
     70 H33       -11.4003   29.7424   28.2603 H           1 DGX       0.0295
     71 H34       -21.1081   23.8596   32.9548 H           1 DGX       0.0910
     72 H35       -20.4623   21.1052   34.1379 H           1 DGX       0.0340
     73 H36       -21.8166   21.5076   33.0777 H           1 DGX       0.0340
     74 H37       -22.4644   21.3112   35.5231 H           1 DGX       0.0621
     75 H38       -23.6164   22.6463   34.0664 H           1 DGX       0.2099
     76 H39       -20.4218   22.1744   36.5732 H           1 DGX       0.0645
     77 H40       -22.3212   22.4502   37.6903 H           1 DGX       0.2100
     78 H41       -21.1232   24.9102   35.3488 H           1 DGX       0.0621
     79 H42       -18.8570   25.5797   36.1176 H           1 DGX       0.0255
     80 H43       -18.6400   24.0071   36.9061 H           1 DGX       0.0255
     81 H44       -19.8813   25.1360   37.4933 H           1 DGX       0.0255
@<TRIPOS>BOND
     1    11     1   1
     2     1     2   1
     3     2     3   1
     4     3     5   1
     5     3     4   1
     6     4    29   1
     7    29    36   1
     8    29    30   1
     9    30    31   1
    10    31    33   1
    11    31    32   1
    12    33    35   1
    13    33    34   1
    14    35    37   1
    15    36    35   1
    16     5     6   1
    17    11     6   1
    18     6     7   1
    19     7     8   1
    20     8     9   1
    21     9    16   1
    22     9    10   1
    23    10    12   1
    24    10    11   1
    25    11    22   1
    26    12    13   1
    27    13    15   1
    28    13    14   1
    29    15    21   1
    30    15    20   1
    31    15    16   1
    32    16    18   1
    33    16    17   1
    34    18    19   1
    35    20    19   1
    36    20    23   1
    37    23    26   2
    38    23    24   1
    39    24    25   1
    40    25    27   1
    41    27    28   2
    42    27    26   1
    43     1    38   1
    44     1    39   1
    45     2    40   1
    46     2    41   1
    47     3    42   1
    48     5    43   1
    49     5    44   1
    50     6    45   1
    51     7    46   1
    52     7    47   1
    53     8    48   1
    54     8    49   1
    55     9    50   1
    56    10    51   1
    57    12    52   1
    58    12    53   1
    59    13    54   1
    60    14    55   1
    61    17    56   1
    62    18    57   1
    63    18    58   1
    64    19    59   1
    65    19    60   1
    66    20    61   1
    67    21    62   1
    68    21    63   1
    69    21    64   1
    70    22    65   1
    71    22    66   1
    72    22    67   1
    73    24    68   1
    74    24    69   1
    75    26    70   1
    76    29    71   1
    77    30    72   1
    78    30    73   1
    79    31    74   1
    80    32    75   1
    81    33    76   1
    82    34    77   1
    83    35    78   1
    84    37    79   1
    85    37    80   1
    86    37    81   1
@<TRIPOS>SUBSTRUCTURE
     1  DGX      1

