@<TRIPOS>MOLECULE
1igj_ligand_018
    81    86
SMALL
GAST_HUCK
****
This file was generated by PARSER (from files_GN.cpp)

@<TRIPOS>ATOM
      1 C1        -14.9066   29.7390   28.4558 C.3         1 DGX      -0.0448
      2 C2        -16.1719   29.1815   29.1583 C.3         1 DGX      -0.0260
      3 C3        -16.0589   29.2424   30.7041 C.3         1 DGX       0.0620
      4 O3        -16.2194   30.6203   31.1268 O.3         1 DGX      -0.3480
      5 C4        -14.7401   28.5518   31.1608 C.3         1 DGX      -0.0232
      6 C5        -13.4628   29.1122   30.4507 C.3         1 DGX      -0.0330
      7 C6        -12.1809   28.4175   31.0031 C.3         1 DGX      -0.0493
      8 C7        -12.0433   26.9507   30.5298 C.3         1 DGX      -0.0470
      9 C8        -12.1798   26.7709   28.9846 C.3         1 DGX      -0.0079
     10 C9        -13.4207   27.5356   28.3837 C.3         1 DGX      -0.0276
     11 C10       -13.5443   29.0521   28.8694 C.3         1 DGX      -0.0258
     12 C11       -13.4550   27.3217   26.8337 C.3         1 DGX      -0.0223
     13 C12       -13.4506   25.8185   26.4498 C.3         1 DGX       0.0664
     14 O12       -13.6164   25.6630   25.0374 O.3         1 DGX      -0.3909
     15 C13       -12.2107   25.0083   27.0031 C.3         1 DGX       0.0405
     16 C14       -12.0885   25.2480   28.5549 C.3         1 DGX       0.0799
     17 O14       -10.8322   24.7427   29.0365 O.3         1 DGX      -0.3874
     18 C15       -13.1630   24.3033   29.1645 C.3         1 DGX      -0.0200
     19 C16       -13.3184   23.1164   28.1878 C.3         1 DGX      -0.0318
     20 C17       -12.5287   23.4600   26.8841 C.3         1 DGX       0.0177
     21 C18       -10.9047   25.4703   26.2525 C.3         1 DGX      -0.0516
     22 C19       -12.4113   29.9444   28.2396 C.3         1 DGX      -0.0590
     23 C20       -11.3971   22.5680   26.5605 C.2         1 DGX      -0.0063
     24 C21       -10.6809   21.6851   27.4589 C.3         1 DGX       0.1204
     25 O21        -9.6198   21.1902   26.6481 O.3         1 DGX      -0.2665
     26 C22       -10.8031   22.5241   25.3649 C.2         1 DGX       0.0017
     27 C23        -9.7244   21.7115   25.4104 C.2         1 DGX       0.2187
     28 O23        -8.8411   21.5033   24.4138 O.2         1 DGX      -0.3870
     29 C1X       -16.1963   30.9253   32.5395 C.3         1 DGX       0.1624
     30 C2X       -16.7261   32.3667   32.7610 C.3         1 DGX       0.0270
     31 C3X       -16.7540   32.7198   34.2728 C.3         1 DGX       0.0881
     32 O3X       -15.4110   32.8962   34.7322 O.3         1 DGX      -0.3890
     33 C4X       -17.4863   31.6198   35.0960 C.3         1 DGX       0.1070
     34 O4X       -17.3786   31.8857   36.4966 O.3         1 DGX      -0.3867
     35 C5X       -16.9353   30.2056   34.7467 C.3         1 DGX       0.0871
     36 O5X       -16.9936   30.0005   33.3182 O.3         1 DGX      -0.3456
     37 C6X       -17.7300   29.0674   35.4272 C.3         1 DGX      -0.0361
     38 H1        -15.0577   29.6780   27.3779 H           1 DGX       0.0271
     39 H2        -14.8617   30.8067   28.6918 H           1 DGX       0.0271
     40 H3        -16.3378   28.1494   28.8446 H           1 DGX       0.0290
     41 H4        -17.0429   29.7591   28.8360 H           1 DGX       0.0290
     42 H5        -16.9026   28.6755   31.1090 H           1 DGX       0.0597
     43 H6        -14.8443   27.4829   30.9705 H           1 DGX       0.0293
     44 H7        -14.6318   28.6558   32.2419 H           1 DGX       0.0293
     45 H8        -13.3913   30.1634   30.7515 H           1 DGX       0.0307
     46 H9        -12.1891   28.4399   32.0960 H           1 DGX       0.0268
     47 H10       -11.2959   28.9766   30.6916 H           1 DGX       0.0268
     48 H11       -12.7786   26.3377   31.0520 H           1 DGX       0.0269
     49 H12       -11.0549   26.6046   30.8394 H           1 DGX       0.0269
     50 H13       -11.2917   27.2489   28.5672 H           1 DGX       0.0332
     51 H14       -14.3050   27.0249   28.7590 H           1 DGX       0.0310
     52 H15       -12.6101   27.8178   26.3562 H           1 DGX       0.0293
     53 H16       -14.3644   27.7538   26.4192 H           1 DGX       0.0293
     54 H17       -14.3714   25.4003   26.8668 H           1 DGX       0.0602
     55 H18       -12.7713   25.9130   24.6116 H           1 DGX       0.2098
     56 H19       -10.1505   25.3903   28.7601 H           1 DGX       0.2102
     57 H20       -14.1235   24.8106   29.2673 H           1 DGX       0.0295
     58 H21       -12.8787   23.9484   30.1595 H           1 DGX       0.0295
     59 H22       -14.3809   22.9811   27.9577 H           1 DGX       0.0301
     60 H23       -12.9864   22.1947   28.6647 H           1 DGX       0.0301
     61 H24       -13.2368   23.2948   26.0628 H           1 DGX       0.0550
     62 H25       -10.9883   25.3048   25.1805 H           1 DGX       0.0239
     63 H26       -10.0272   24.9221   26.5974 H           1 DGX       0.0239
     64 H27       -10.6974   26.5277   26.4069 H           1 DGX       0.0239
     65 H28       -12.4305   30.9532   28.6591 H           1 DGX       0.0235
     66 H29       -12.5401   30.0401   27.1611 H           1 DGX       0.0235
     67 H30       -11.4171   29.5399   28.4161 H           1 DGX       0.0235
     68 H31       -11.2992   20.8532   27.8013 H           1 DGX       0.0859
     69 H32       -10.2687   22.2358   28.3022 H           1 DGX       0.0859
     70 H33       -11.0596   23.0589   24.5699 H           1 DGX       0.0295
     71 H34       -15.1529   30.8804   32.8602 H           1 DGX       0.0910
     72 H35       -17.7407   32.4397   32.3547 H           1 DGX       0.0340
     73 H36       -16.0971   33.0815   32.2253 H           1 DGX       0.0340
     74 H37       -17.2757   33.6709   34.4050 H           1 DGX       0.0621
     75 H38       -15.4849   33.3578   35.5941 H           1 DGX       0.2099
     76 H39       -18.5489   31.6552   34.8426 H           1 DGX       0.0645
     77 H40       -16.4385   31.7286   36.7248 H           1 DGX       0.2100
     78 H41       -15.8958   30.1242   35.0842 H           1 DGX       0.0621
     79 H42       -17.3142   28.1007   35.1385 H           1 DGX       0.0255
     80 H43       -18.7798   29.0996   35.1271 H           1 DGX       0.0255
     81 H44       -17.6696   29.1576   36.5132 H           1 DGX       0.0255
@<TRIPOS>BOND
     1    11     1   1
     2     1     2   1
     3     2     3   1
     4     3     5   1
     5     3     4   1
     6     4    29   1
     7    29    36   1
     8    29    30   1
     9    30    31   1
    10    31    33   1
    11    31    32   1
    12    33    35   1
    13    33    34   1
    14    35    37   1
    15    36    35   1
    16     5     6   1
    17    11     6   1
    18     6     7   1
    19     7     8   1
    20     8     9   1
    21     9    16   1
    22     9    10   1
    23    10    12   1
    24    10    11   1
    25    11    22   1
    26    12    13   1
    27    13    15   1
    28    13    14   1
    29    15    21   1
    30    15    20   1
    31    15    16   1
    32    16    18   1
    33    16    17   1
    34    18    19   1
    35    20    19   1
    36    20    23   1
    37    23    26   2
    38    23    24   1
    39    24    25   1
    40    25    27   1
    41    27    28   2
    42    27    26   1
    43     1    38   1
    44     1    39   1
    45     2    40   1
    46     2    41   1
    47     3    42   1
    48     5    43   1
    49     5    44   1
    50     6    45   1
    51     7    46   1
    52     7    47   1
    53     8    48   1
    54     8    49   1
    55     9    50   1
    56    10    51   1
    57    12    52   1
    58    12    53   1
    59    13    54   1
    60    14    55   1
    61    17    56   1
    62    18    57   1
    63    18    58   1
    64    19    59   1
    65    19    60   1
    66    20    61   1
    67    21    62   1
    68    21    63   1
    69    21    64   1
    70    22    65   1
    71    22    66   1
    72    22    67   1
    73    24    68   1
    74    24    69   1
    75    26    70   1
    76    29    71   1
    77    30    72   1
    78    30    73   1
    79    31    74   1
    80    32    75   1
    81    33    76   1
    82    34    77   1
    83    35    78   1
    84    37    79   1
    85    37    80   1
    86    37    81   1
@<TRIPOS>SUBSTRUCTURE
     1  DGX      1

