@<TRIPOS>MOLECULE
1igj_ligand_071
    81    86
SMALL
GAST_HUCK
****
This file was generated by PARSER (from files_GN.cpp)

@<TRIPOS>ATOM
      1 C1        -13.4365   24.2972   28.8268 C.3         1 DGX      -0.0448
      2 C2        -13.2375   24.4582   30.3506 C.3         1 DGX      -0.0260
      3 C3        -14.4472   25.1627   31.0170 C.3         1 DGX       0.0620
      4 O3        -15.5555   24.2332   31.0020 O.3         1 DGX      -0.3480
      5 C4        -14.6912   26.5260   30.3143 C.3         1 DGX      -0.0232
      6 C5        -14.8866   26.3927   28.7679 C.3         1 DGX      -0.0330
      7 C6        -15.1834   27.7858   28.1419 C.3         1 DGX      -0.0493
      8 C7        -13.9388   28.6983   28.0799 C.3         1 DGX      -0.0470
      9 C8        -12.7414   28.0106   27.3525 C.3         1 DGX      -0.0079
     10 C9        -12.4202   26.6045   27.9871 C.3         1 DGX      -0.0276
     11 C10       -13.6913   25.6412   28.0433 C.3         1 DGX      -0.0258
     12 C11       -11.1557   25.9747   27.3237 C.3         1 DGX      -0.0223
     13 C12        -9.9393   26.9373   27.2537 C.3         1 DGX       0.0664
     14 O12        -8.8390   26.2621   26.6349 O.3         1 DGX      -0.3909
     15 C13       -10.2523   28.3115   26.5280 C.3         1 DGX       0.0405
     16 C14       -11.5055   28.9742   27.2021 C.3         1 DGX       0.0799
     17 O14       -11.9410   30.0605   26.3750 O.3         1 DGX      -0.3874
     18 C15       -10.9557   29.5977   28.5138 C.3         1 DGX      -0.0200
     19 C16        -9.4784   29.9522   28.2357 C.3         1 DGX      -0.0318
     20 C17        -9.1129   29.3648   26.8375 C.3         1 DGX       0.0177
     21 C18       -10.4449   28.0345   24.9901 C.3         1 DGX      -0.0516
     22 C19       -14.1392   25.1932   26.6018 C.3         1 DGX      -0.0590
     23 C20        -8.8642   30.3958   25.8097 C.2         1 DGX      -0.0063
     24 C21        -7.8114   30.2879   24.8226 C.3         1 DGX       0.1204
     25 O21        -7.9998   31.4376   23.9981 O.3         1 DGX      -0.2665
     26 C22        -9.5477   31.5249   25.5657 C.2         1 DGX       0.0017
     27 C23        -9.0513   32.1388   24.4678 C.2         1 DGX       0.2187
     28 O23        -9.5157   33.2861   23.9294 O.2         1 DGX      -0.3870
     29 C1X       -16.8524   24.6606   31.4679 C.3         1 DGX       0.1624
     30 C2X       -17.7322   23.4082   31.7124 C.3         1 DGX       0.0270
     31 C3X       -19.1381   23.8161   32.2202 C.3         1 DGX       0.0881
     32 O3X       -19.8732   24.4433   31.1693 O.3         1 DGX      -0.3890
     33 C4X       -19.0294   24.7673   33.4446 C.3         1 DGX       0.1070
     34 O4X       -20.3196   25.2563   33.8099 O.3         1 DGX      -0.3867
     35 C5X       -18.0406   25.9355   33.1657 C.3         1 DGX       0.0871
     36 O5X       -16.7738   25.4352   32.6878 O.3         1 DGX      -0.3456
     37 C6X       -17.7578   26.7925   34.4228 C.3         1 DGX      -0.0361
     38 H1        -12.5759   23.7669   28.4233 H           1 DGX       0.0271
     39 H2        -14.2921   23.6291   28.6920 H           1 DGX       0.0271
     40 H3        -12.3291   25.0271   30.5470 H           1 DGX       0.0290
     41 H4        -13.1136   23.4687   30.7938 H           1 DGX       0.0290
     42 H5        -14.1908   25.3553   32.0647 H           1 DGX       0.0597
     43 H6        -13.8412   27.1697   30.5376 H           1 DGX       0.0293
     44 H7        -15.5597   27.0164   30.7593 H           1 DGX       0.0293
     45 H8        -15.7917   25.7963   28.6355 H           1 DGX       0.0307
     46 H9        -15.9724   28.2904   28.7061 H           1 DGX       0.0268
     47 H10       -15.5599   27.6565   27.1286 H           1 DGX       0.0268
     48 H11       -13.6476   28.9938   29.0860 H           1 DGX       0.0269
     49 H12       -14.2295   29.6077   27.5541 H           1 DGX       0.0269
     50 H13       -13.0795   27.8312   26.3331 H           1 DGX       0.0332
     51 H14       -12.1153   26.8057   29.0123 H           1 DGX       0.0310
     52 H15       -11.3795   25.6273   26.3160 H           1 DGX       0.0293
     53 H16       -10.8324   25.1058   27.8971 H           1 DGX       0.0293
     54 H17        -9.6193   27.1281   28.2826 H           1 DGX       0.0602
     55 H18        -8.6904   25.4500   27.1689 H           1 DGX       0.2098
     56 H19       -12.5750   30.5852   26.9073 H           1 DGX       0.2102
     57 H20       -11.0124   28.8886   29.3426 H           1 DGX       0.0295
     58 H21       -11.5193   30.4841   28.8070 H           1 DGX       0.0295
     59 H22        -8.8397   29.5130   29.0085 H           1 DGX       0.0301
     60 H23        -9.3400   31.0354   28.2911 H           1 DGX       0.0301
     61 H24        -8.1655   28.8291   26.9486 H           1 DGX       0.0550
     62 H25        -9.5530   27.5795   24.5651 H           1 DGX       0.0239
     63 H26       -10.6491   28.9508   24.4396 H           1 DGX       0.0239
     64 H27       -11.2787   27.3646   24.8080 H           1 DGX       0.0239
     65 H28       -15.0529   24.6093   26.6504 H           1 DGX       0.0235
     66 H29       -13.3917   24.5574   26.1305 H           1 DGX       0.0235
     67 H30       -14.3329   26.0267   25.9332 H           1 DGX       0.0235
     68 H31        -7.9208   29.3863   24.2220 H           1 DGX       0.0859
     69 H32        -6.8321   30.2965   25.3020 H           1 DGX       0.0859
     70 H33       -10.2970   31.8888   26.1003 H           1 DGX       0.0295
     71 H34       -17.3096   25.2649   30.6778 H           1 DGX       0.0910
     72 H35       -17.2416   22.7698   32.4588 H           1 DGX       0.0340
     73 H36       -17.8166   22.8347   30.7843 H           1 DGX       0.0340
     74 H37       -19.6796   22.9207   32.5201 H           1 DGX       0.0621
     75 H38       -19.9375   23.7760   30.4557 H           1 DGX       0.2099
     76 H39       -18.6520   24.1860   34.2912 H           1 DGX       0.0645
     77 H40       -20.6155   25.8061   33.0543 H           1 DGX       0.2100
     78 H41       -18.4654   26.6075   32.4136 H           1 DGX       0.0621
     79 H42       -17.0495   27.5901   34.1841 H           1 DGX       0.0255
     80 H43       -17.3328   26.1798   35.2203 H           1 DGX       0.0255
     81 H44       -18.6823   27.2469   34.7873 H           1 DGX       0.0255
@<TRIPOS>BOND
     1    11     1   1
     2     1     2   1
     3     2     3   1
     4     3     5   1
     5     3     4   1
     6     4    29   1
     7    29    36   1
     8    29    30   1
     9    30    31   1
    10    31    33   1
    11    31    32   1
    12    33    35   1
    13    33    34   1
    14    35    37   1
    15    36    35   1
    16     5     6   1
    17    11     6   1
    18     6     7   1
    19     7     8   1
    20     8     9   1
    21     9    16   1
    22     9    10   1
    23    10    12   1
    24    10    11   1
    25    11    22   1
    26    12    13   1
    27    13    15   1
    28    13    14   1
    29    15    21   1
    30    15    20   1
    31    15    16   1
    32    16    18   1
    33    16    17   1
    34    18    19   1
    35    20    19   1
    36    20    23   1
    37    23    26   2
    38    23    24   1
    39    24    25   1
    40    25    27   1
    41    27    28   2
    42    27    26   1
    43     1    38   1
    44     1    39   1
    45     2    40   1
    46     2    41   1
    47     3    42   1
    48     5    43   1
    49     5    44   1
    50     6    45   1
    51     7    46   1
    52     7    47   1
    53     8    48   1
    54     8    49   1
    55     9    50   1
    56    10    51   1
    57    12    52   1
    58    12    53   1
    59    13    54   1
    60    14    55   1
    61    17    56   1
    62    18    57   1
    63    18    58   1
    64    19    59   1
    65    19    60   1
    66    20    61   1
    67    21    62   1
    68    21    63   1
    69    21    64   1
    70    22    65   1
    71    22    66   1
    72    22    67   1
    73    24    68   1
    74    24    69   1
    75    26    70   1
    76    29    71   1
    77    30    72   1
    78    30    73   1
    79    31    74   1
    80    32    75   1
    81    33    76   1
    82    34    77   1
    83    35    78   1
    84    37    79   1
    85    37    80   1
    86    37    81   1
@<TRIPOS>SUBSTRUCTURE
     1  DGX      1

