@<TRIPOS>MOLECULE
1igj_ligand_020
    81    86
SMALL
GAST_HUCK
****
This file was generated by PARSER (from files_GN.cpp)

@<TRIPOS>ATOM
      1 C1         -9.6817   26.6415   28.5494 C.3         1 DGX      -0.0448
      2 C2        -10.8790   25.9367   27.8534 C.3         1 DGX      -0.0260
      3 C3        -10.7998   26.1562   26.3213 C.3         1 DGX       0.0620
      4 O3         -9.6560   25.5151   25.6847 O.3         1 DGX      -0.3480
      5 C4        -10.7859   27.6840   26.0144 C.3         1 DGX      -0.0232
      6 C5         -9.6763   28.4866   26.7885 C.3         1 DGX      -0.0330
      7 C6         -9.7607   30.0100   26.4705 C.3         1 DGX      -0.0493
      8 C7        -10.9329   30.7303   27.1878 C.3         1 DGX      -0.0470
      9 C8        -10.9582   30.4865   28.7313 C.3         1 DGX      -0.0079
     10 C9        -10.8601   28.9535   29.0680 C.3         1 DGX      -0.0276
     11 C10        -9.6436   28.2053   28.3472 C.3         1 DGX      -0.0258
     12 C11       -10.9211   28.7531   30.6179 C.3         1 DGX      -0.0223
     13 C12       -12.1580   29.4263   31.2607 C.3         1 DGX       0.0664
     14 O12       -12.1869   29.1170   32.6571 O.3         1 DGX      -0.3909
     15 C13       -12.2810   30.9807   30.9840 C.3         1 DGX       0.0405
     16 C14       -12.1589   31.2397   29.4356 C.3         1 DGX       0.0799
     17 O14       -11.9704   32.6420   29.1862 O.3         1 DGX      -0.3874
     18 C15       -13.5798   30.9056   28.8913 C.3         1 DGX      -0.0200
     19 C16       -14.5844   31.1490   30.0427 C.3         1 DGX      -0.0318
     20 C17       -13.7525   31.4431   31.3282 C.3         1 DGX       0.0177
     21 C18       -11.1828   31.7473   31.8134 C.3         1 DGX      -0.0516
     22 C19        -8.2569   28.6714   28.9366 C.3         1 DGX      -0.0590
     23 C20       -13.9459   32.8062   31.8569 C.2         1 DGX      -0.0063
     24 C21       -14.1342   33.0899   33.2687 C.3         1 DGX       0.1204
     25 O21       -14.2687   34.5086   33.2883 O.3         1 DGX      -0.2665
     26 C22       -13.9768   33.9544   31.1780 C.2         1 DGX       0.0017
     27 C23       -14.1718   34.9840   32.0299 C.2         1 DGX       0.2187
     28 O23       -14.2666   36.2887   31.6911 O.2         1 DGX      -0.3870
     29 C1X        -9.4360   24.0953   25.8794 C.3         1 DGX       0.1624
     30 C2X       -10.6247   23.2024   25.4265 C.3         1 DGX       0.0270
     31 C3X       -10.2798   21.6967   25.4897 C.3         1 DGX       0.0881
     32 O3X       -10.2599   21.2341   26.8455 O.3         1 DGX      -0.3890
     33 C4X        -8.9135   21.4156   24.7997 C.3         1 DGX       0.1070
     34 O4X        -8.5237   20.0621   25.0156 O.3         1 DGX      -0.3867
     35 C5X        -7.8119   22.3930   25.2823 C.3         1 DGX       0.0871
     36 O5X        -8.2510   23.7624   25.1260 O.3         1 DGX      -0.3456
     37 C6X        -6.4946   22.2271   24.4890 C.3         1 DGX      -0.0361
     38 H1         -9.6918   26.3764   29.6045 H           1 DGX       0.0271
     39 H2         -8.7603   26.1994   28.1476 H           1 DGX       0.0271
     40 H3        -11.8241   26.3150   28.2336 H           1 DGX       0.0290
     41 H4        -10.8602   24.8761   28.0978 H           1 DGX       0.0290
     42 H5        -11.7050   25.7572   25.8563 H           1 DGX       0.0597
     43 H6        -11.7672   28.0818   26.2617 H           1 DGX       0.0293
     44 H7        -10.6461   27.8218   24.9377 H           1 DGX       0.0293
     45 H8         -8.7304   28.1405   26.3584 H           1 DGX       0.0307
     46 H9         -9.8595   30.1657   25.3921 H           1 DGX       0.0268
     47 H10        -8.8263   30.4953   26.7656 H           1 DGX       0.0268
     48 H11       -11.8722   30.3995   26.7398 H           1 DGX       0.0269
     49 H12       -10.8409   31.8015   26.9894 H           1 DGX       0.0269
     50 H13       -10.0521   30.9530   29.1226 H           1 DGX       0.0332
     51 H14       -11.7739   28.5091   28.6774 H           1 DGX       0.0310
     52 H15       -10.0192   29.1440   31.0881 H           1 DGX       0.0293
     53 H16       -10.9797   27.6904   30.8565 H           1 DGX       0.0293
     54 H17       -13.0322   28.9150   30.8459 H           1 DGX       0.0602
     55 H18       -11.3349   29.4346   33.0206 H           1 DGX       0.2098
     56 H19       -11.0504   32.8488   29.4541 H           1 DGX       0.2102
     57 H20       -13.6452   29.8626   28.5789 H           1 DGX       0.0295
     58 H21       -13.8340   31.5212   28.0232 H           1 DGX       0.0295
     59 H22       -15.1947   30.2519   30.1883 H           1 DGX       0.0301
     60 H23       -15.2694   31.9604   29.7841 H           1 DGX       0.0301
     61 H24       -14.1442   30.7830   32.1105 H           1 DGX       0.0550
     62 H25       -11.3136   31.5739   32.8812 H           1 DGX       0.0239
     63 H26       -11.2356   32.8241   31.6530 H           1 DGX       0.0239
     64 H27       -10.1786   31.4304   31.5388 H           1 DGX       0.0239
     65 H28        -7.4329   28.2367   28.3692 H           1 DGX       0.0235
     66 H29        -8.1403   28.3517   29.9714 H           1 DGX       0.0235
     67 H30        -8.1341   29.7512   28.9055 H           1 DGX       0.0235
     68 H31       -13.2684   32.7838   33.8594 H           1 DGX       0.0859
     69 H32       -15.0399   32.6172   33.6546 H           1 DGX       0.0859
     70 H33       -13.9072   34.0556   30.1922 H           1 DGX       0.0295
     71 H34        -9.2066   23.9118   26.9366 H           1 DGX       0.0910
     72 H35       -10.8712   23.4643   24.3969 H           1 DGX       0.0340
     73 H36       -11.5052   23.3858   26.0466 H           1 DGX       0.0340
     74 H37       -11.0575   21.1339   24.9651 H           1 DGX       0.0621
     75 H38       -11.1039   20.7385   26.9448 H           1 DGX       0.2099
     76 H39        -9.0552   21.5633   23.7256 H           1 DGX       0.0645
     77 H40        -8.1251   20.0527   25.9117 H           1 DGX       0.2100
     78 H41        -7.5966   22.1845   26.3372 H           1 DGX       0.0621
     79 H42        -5.7516   22.9447   24.8460 H           1 DGX       0.0255
     80 H43        -6.6653   22.4028   23.4267 H           1 DGX       0.0255
     81 H44        -6.0929   21.2191   24.6252 H           1 DGX       0.0255
@<TRIPOS>BOND
     1    11     1   1
     2     1     2   1
     3     2     3   1
     4     3     5   1
     5     3     4   1
     6     4    29   1
     7    29    36   1
     8    29    30   1
     9    30    31   1
    10    31    33   1
    11    31    32   1
    12    33    35   1
    13    33    34   1
    14    35    37   1
    15    36    35   1
    16     5     6   1
    17    11     6   1
    18     6     7   1
    19     7     8   1
    20     8     9   1
    21     9    16   1
    22     9    10   1
    23    10    12   1
    24    10    11   1
    25    11    22   1
    26    12    13   1
    27    13    15   1
    28    13    14   1
    29    15    21   1
    30    15    20   1
    31    15    16   1
    32    16    18   1
    33    16    17   1
    34    18    19   1
    35    20    19   1
    36    20    23   1
    37    23    26   2
    38    23    24   1
    39    24    25   1
    40    25    27   1
    41    27    28   2
    42    27    26   1
    43     1    38   1
    44     1    39   1
    45     2    40   1
    46     2    41   1
    47     3    42   1
    48     5    43   1
    49     5    44   1
    50     6    45   1
    51     7    46   1
    52     7    47   1
    53     8    48   1
    54     8    49   1
    55     9    50   1
    56    10    51   1
    57    12    52   1
    58    12    53   1
    59    13    54   1
    60    14    55   1
    61    17    56   1
    62    18    57   1
    63    18    58   1
    64    19    59   1
    65    19    60   1
    66    20    61   1
    67    21    62   1
    68    21    63   1
    69    21    64   1
    70    22    65   1
    71    22    66   1
    72    22    67   1
    73    24    68   1
    74    24    69   1
    75    26    70   1
    76    29    71   1
    77    30    72   1
    78    30    73   1
    79    31    74   1
    80    32    75   1
    81    33    76   1
    82    34    77   1
    83    35    78   1
    84    37    79   1
    85    37    80   1
    86    37    81   1
@<TRIPOS>SUBSTRUCTURE
     1  DGX      1

