@<TRIPOS>MOLECULE
1igj_ligand_032
    81    86
SMALL
GAST_HUCK
****
This file was generated by PARSER (from files_GN.cpp)

@<TRIPOS>ATOM
      1 C1        -13.4795   29.3435   28.3590 C.3         1 DGX      -0.0448
      2 C2        -12.2702   29.9888   29.0814 C.3         1 DGX      -0.0260
      3 C3        -11.0950   28.9751   29.1564 C.3         1 DGX       0.0620
      4 O3        -10.6030   28.5471   27.8618 O.3         1 DGX      -0.3480
      5 C4        -11.5699   27.7120   29.9271 C.3         1 DGX      -0.0232
      6 C5        -12.8402   27.0463   29.2917 C.3         1 DGX      -0.0330
      7 C6        -13.2647   25.7764   30.0923 C.3         1 DGX      -0.0493
      8 C7        -13.9409   26.1115   31.4428 C.3         1 DGX      -0.0470
      9 C8        -15.1520   27.0910   31.2981 C.3         1 DGX      -0.0079
     10 C9        -14.7566   28.3665   30.4638 C.3         1 DGX      -0.0276
     11 C10       -14.0521   28.0494   29.0668 C.3         1 DGX      -0.0258
     12 C11       -15.9966   29.3160   30.3633 C.3         1 DGX      -0.0223
     13 C12       -16.5560   29.6928   31.7545 C.3         1 DGX       0.0664
     14 O12       -17.6057   30.6538   31.5982 O.3         1 DGX      -0.3909
     15 C13       -17.0004   28.4649   32.6467 C.3         1 DGX       0.0405
     16 C14       -15.8383   27.3965   32.6931 C.3         1 DGX       0.0799
     17 O14       -16.3376   26.1284   33.1597 O.3         1 DGX      -0.3874
     18 C15       -14.9022   27.9328   33.8085 C.3         1 DGX      -0.0200
     19 C16       -15.8391   28.5227   34.8806 C.3         1 DGX      -0.0318
     20 C17       -17.1409   28.9698   34.1470 C.3         1 DGX       0.0177
     21 C18       -18.3082   27.8275   32.0491 C.3         1 DGX      -0.0516
     22 C19       -15.0692   27.4283   28.0400 C.3         1 DGX      -0.0590
     23 C20       -18.3937   28.6769   34.8685 C.2         1 DGX      -0.0063
     24 C21       -19.4968   29.6169   34.9723 C.3         1 DGX       0.1204
     25 O21       -20.4453   28.9024   35.7581 O.3         1 DGX      -0.2665
     26 C22       -18.7289   27.5424   35.4929 C.2         1 DGX       0.0017
     27 C23       -19.9565   27.6793   36.0510 C.2         1 DGX       0.2187
     28 O23       -20.5918   26.7532   36.7980 O.2         1 DGX      -0.3870
     29 C1X        -9.8909   29.4954   27.0402 C.3         1 DGX       0.1624
     30 C2X        -9.1474   28.7110   25.9286 C.3         1 DGX       0.0270
     31 C3X        -8.4448   29.6838   24.9457 C.3         1 DGX       0.0881
     32 O3X        -7.3453   30.3294   25.5882 O.3         1 DGX      -0.3890
     33 C4X        -9.4455   30.7421   24.4052 C.3         1 DGX       0.1070
     34 O4X        -8.7546   31.7031   23.6055 O.3         1 DGX      -0.3867
     35 C5X       -10.2077   31.4272   25.5773 C.3         1 DGX       0.0871
     36 O5X       -10.8111   30.4202   26.4203 O.3         1 DGX      -0.3456
     37 C6X       -11.3147   32.3874   25.0850 C.3         1 DGX      -0.0361
     38 H1        -14.2508   30.1025   28.2289 H           1 DGX       0.0271
     39 H2        -13.1527   29.0887   27.3447 H           1 DGX       0.0271
     40 H3        -12.5492   30.3121   30.0863 H           1 DGX       0.0290
     41 H4        -11.9607   30.8901   28.5527 H           1 DGX       0.0290
     42 H5        -10.2749   29.4227   29.7257 H           1 DGX       0.0597
     43 H6        -11.7630   27.9935   30.9648 H           1 DGX       0.0293
     44 H7        -10.7487   26.9872   29.9442 H           1 DGX       0.0293
     45 H8        -12.5156   26.6834   28.3094 H           1 DGX       0.0307
     46 H9        -12.3905   25.1452   30.2821 H           1 DGX       0.0268
     47 H10       -13.9557   25.1783   29.4928 H           1 DGX       0.0268
     48 H11       -13.1944   26.5395   32.1117 H           1 DGX       0.0269
     49 H12       -14.2780   25.1734   31.8912 H           1 DGX       0.0269
     50 H13       -15.8998   26.5517   30.7107 H           1 DGX       0.0332
     51 H14       -14.0232   28.8965   31.0707 H           1 DGX       0.0310
     52 H15       -16.7868   28.8559   29.7718 H           1 DGX       0.0293
     53 H16       -15.7198   30.2488   29.8724 H           1 DGX       0.0293
     54 H17       -15.7533   30.2384   32.2620 H           1 DGX       0.0602
     55 H18       -18.2890   30.2164   31.0501 H           1 DGX       0.2098
     56 H19       -16.7470   26.2947   34.0328 H           1 DGX       0.2102
     57 H20       -14.2443   28.7150   33.4253 H           1 DGX       0.0295
     58 H21       -14.2768   27.1407   34.2339 H           1 DGX       0.0295
     59 H22       -15.3530   29.3651   35.3841 H           1 DGX       0.0301
     60 H23       -16.0280   27.7516   35.6333 H           1 DGX       0.0301
     61 H24       -17.0938   30.0651   34.1525 H           1 DGX       0.0550
     62 H25       -19.1064   28.5645   31.9653 H           1 DGX       0.0239
     63 H26       -18.6789   27.0195   32.6785 H           1 DGX       0.0239
     64 H27       -18.1331   27.4058   31.0585 H           1 DGX       0.0239
     65 H28       -14.5628   27.1077   27.1259 H           1 DGX       0.0235
     66 H29       -15.8207   28.1629   27.7459 H           1 DGX       0.0235
     67 H30       -15.5927   26.5615   28.4412 H           1 DGX       0.0235
     68 H31       -19.9189   29.8501   33.9909 H           1 DGX       0.0859
     69 H32       -19.1980   30.5343   35.4834 H           1 DGX       0.0859
     70 H33       -18.1777   26.7216   35.5654 H           1 DGX       0.0295
     71 H34        -9.1582   30.0307   27.6553 H           1 DGX       0.0910
     72 H35        -9.8715   28.1055   25.3742 H           1 DGX       0.0340
     73 H36        -8.4119   28.0378   26.3769 H           1 DGX       0.0340
     74 H37        -8.0487   29.1171   24.1010 H           1 DGX       0.0621
     75 H38        -6.7408   29.6150   25.8940 H           1 DGX       0.2099
     76 H39       -10.1696   30.2335   23.7611 H           1 DGX       0.0645
     77 H40        -8.3544   31.1847   22.8767 H           1 DGX       0.2100
     78 H41        -9.5059   32.0197   26.1700 H           1 DGX       0.0621
     79 H42       -11.8603   32.7937   25.9376 H           1 DGX       0.0255
     80 H43       -12.0203   31.8662   24.4360 H           1 DGX       0.0255
     81 H44       -10.8775   33.2190   24.5299 H           1 DGX       0.0255
@<TRIPOS>BOND
     1    11     1   1
     2     1     2   1
     3     2     3   1
     4     3     5   1
     5     3     4   1
     6     4    29   1
     7    29    36   1
     8    29    30   1
     9    30    31   1
    10    31    33   1
    11    31    32   1
    12    33    35   1
    13    33    34   1
    14    35    37   1
    15    36    35   1
    16     5     6   1
    17    11     6   1
    18     6     7   1
    19     7     8   1
    20     8     9   1
    21     9    16   1
    22     9    10   1
    23    10    12   1
    24    10    11   1
    25    11    22   1
    26    12    13   1
    27    13    15   1
    28    13    14   1
    29    15    21   1
    30    15    20   1
    31    15    16   1
    32    16    18   1
    33    16    17   1
    34    18    19   1
    35    20    19   1
    36    20    23   1
    37    23    26   2
    38    23    24   1
    39    24    25   1
    40    25    27   1
    41    27    28   2
    42    27    26   1
    43     1    38   1
    44     1    39   1
    45     2    40   1
    46     2    41   1
    47     3    42   1
    48     5    43   1
    49     5    44   1
    50     6    45   1
    51     7    46   1
    52     7    47   1
    53     8    48   1
    54     8    49   1
    55     9    50   1
    56    10    51   1
    57    12    52   1
    58    12    53   1
    59    13    54   1
    60    14    55   1
    61    17    56   1
    62    18    57   1
    63    18    58   1
    64    19    59   1
    65    19    60   1
    66    20    61   1
    67    21    62   1
    68    21    63   1
    69    21    64   1
    70    22    65   1
    71    22    66   1
    72    22    67   1
    73    24    68   1
    74    24    69   1
    75    26    70   1
    76    29    71   1
    77    30    72   1
    78    30    73   1
    79    31    74   1
    80    32    75   1
    81    33    76   1
    82    34    77   1
    83    35    78   1
    84    37    79   1
    85    37    80   1
    86    37    81   1
@<TRIPOS>SUBSTRUCTURE
     1  DGX      1

