@<TRIPOS>MOLECULE
1igj_ligand_006
    81    86
SMALL
GAST_HUCK
****
This file was generated by PARSER (from files_GN.cpp)

@<TRIPOS>ATOM
      1 C1        -15.1602   26.1047   30.2293 C.3         1 DGX      -0.0448
      2 C2        -14.9590   25.8963   28.7055 C.3         1 DGX      -0.0260
      3 C3        -13.4574   25.8319   28.3235 C.3         1 DGX       0.0620
      4 O3        -12.9080   24.5911   28.8378 O.3         1 DGX      -0.3480
      5 C4        -12.7282   27.0910   28.8704 C.3         1 DGX      -0.0232
      6 C5        -12.9204   27.3026   30.4100 C.3         1 DGX      -0.0330
      7 C6        -12.1058   28.5366   30.9030 C.3         1 DGX      -0.0493
      8 C7        -12.7152   29.8791   30.4337 C.3         1 DGX      -0.0470
      9 C8        -14.2328   30.0295   30.7779 C.3         1 DGX      -0.0079
     10 C9        -15.0675   28.7610   30.3537 C.3         1 DGX      -0.0276
     11 C10       -14.4424   27.3745   30.8421 C.3         1 DGX      -0.0258
     12 C11       -16.5602   28.9846   30.7535 C.3         1 DGX      -0.0223
     13 C12       -17.1469   30.2825   30.1433 C.3         1 DGX       0.0664
     14 O12       -18.5296   30.3505   30.5072 O.3         1 DGX      -0.3909
     15 C13       -16.3646   31.6086   30.5199 C.3         1 DGX       0.0405
     16 C14       -14.8210   31.4063   30.2636 C.3         1 DGX       0.0799
     17 O14       -14.0620   32.4238   30.9429 O.3         1 DGX      -0.3874
     18 C15       -14.6656   31.6806   28.7426 C.3         1 DGX      -0.0200
     19 C16       -15.6489   32.8230   28.4257 C.3         1 DGX      -0.0318
     20 C17       -16.7802   32.7528   29.4970 C.3         1 DGX       0.0177
     21 C18       -16.6496   31.9569   32.0278 C.3         1 DGX      -0.0516
     22 C19       -14.5581   27.2109   32.4037 C.3         1 DGX      -0.0590
     23 C20       -17.1833   34.0622   30.0400 C.2         1 DGX      -0.0063
     24 C21       -18.5675   34.4651   30.2086 C.3         1 DGX       0.1204
     25 O21       -18.4462   35.7726   30.7652 O.3         1 DGX      -0.2665
     26 C22       -16.3889   35.0430   30.4807 C.2         1 DGX       0.0017
     27 C23       -17.1435   36.0798   30.9075 C.2         1 DGX       0.2187
     28 O23       -16.6735   37.2473   31.3994 O.2         1 DGX      -0.3870
     29 C1X       -11.7842   23.9598   28.1819 C.3         1 DGX       0.1624
     30 C2X       -12.1925   23.2479   26.8614 C.3         1 DGX       0.0270
     31 C3X       -10.9541   22.6844   26.1157 C.3         1 DGX       0.0881
     32 O3X       -10.4439   21.5386   26.8023 O.3         1 DGX      -0.3890
     33 C4X        -9.8537   23.7723   25.9623 C.3         1 DGX       0.1070
     34 O4X        -8.6977   23.1904   25.3589 O.3         1 DGX      -0.3867
     35 C5X        -9.5172   24.4170   27.3412 C.3         1 DGX       0.0871
     36 O5X       -10.7181   24.9036   27.9683 O.3         1 DGX      -0.3456
     37 C6X        -8.5653   25.6329   27.2375 C.3         1 DGX      -0.0361
     38 H1        -16.2316   26.1221   30.4328 H           1 DGX       0.0271
     39 H2        -14.7794   25.2029   30.7201 H           1 DGX       0.0271
     40 H3        -15.4515   26.7008   28.1539 H           1 DGX       0.0290
     41 H4        -15.4406   24.9619   28.4055 H           1 DGX       0.0290
     42 H5        -13.4026   25.8557   27.2318 H           1 DGX       0.0597
     43 H6        -13.0973   27.9544   28.3157 H           1 DGX       0.0293
     44 H7        -11.6638   27.0286   28.6522 H           1 DGX       0.0293
     45 H8        -12.4648   26.4284   30.8904 H           1 DGX       0.0307
     46 H9        -11.0751   28.4690   30.5432 H           1 DGX       0.0268
     47 H10       -12.0516   28.5333   31.9942 H           1 DGX       0.0268
     48 H11       -12.5622   29.9741   29.3582 H           1 DGX       0.0269
     49 H12       -12.1497   30.6848   30.9098 H           1 DGX       0.0269
     50 H13       -14.2805   30.0825   31.8679 H           1 DGX       0.0332
     51 H14       -15.0596   28.7398   29.2643 H           1 DGX       0.0310
     52 H15       -16.6639   29.0174   31.8384 H           1 DGX       0.0293
     53 H16       -17.1715   28.1573   30.3904 H           1 DGX       0.0293
     54 H17       -17.1306   30.1433   29.0573 H           1 DGX       0.0602
     55 H18       -18.8960   31.1247   30.0314 H           1 DGX       0.2098
     56 H19       -14.3502   33.2821   30.5765 H           1 DGX       0.2102
     57 H20       -14.9286   30.8001   28.1532 H           1 DGX       0.0295
     58 H21       -13.6444   31.9708   28.4802 H           1 DGX       0.0295
     59 H22       -16.0485   32.7075   27.4132 H           1 DGX       0.0301
     60 H23       -15.1070   33.7713   28.4533 H           1 DGX       0.0301
     61 H24       -17.6623   32.4177   28.9410 H           1 DGX       0.0550
     62 H25       -17.7188   32.0792   32.2046 H           1 DGX       0.0239
     63 H26       -16.1605   32.8851   32.3236 H           1 DGX       0.0239
     64 H27       -16.2864   31.1763   32.6957 H           1 DGX       0.0239
     65 H28       -13.9988   26.3379   32.7474 H           1 DGX       0.0235
     66 H29       -15.5963   27.0708   32.7097 H           1 DGX       0.0235
     67 H30       -14.1707   28.0727   32.9423 H           1 DGX       0.0235
     68 H31       -19.0960   33.8061   30.9009 H           1 DGX       0.0859
     69 H32       -19.0930   34.5071   29.2526 H           1 DGX       0.0859
     70 H33       -15.3991   35.0393   30.4873 H           1 DGX       0.0295
     71 H34       -11.4249   23.1986   28.8795 H           1 DGX       0.0910
     72 H35       -12.6995   23.9499   26.1991 H           1 DGX       0.0340
     73 H36       -12.8919   22.4405   27.0848 H           1 DGX       0.0340
     74 H37       -11.2628   22.3539   25.1192 H           1 DGX       0.0621
     75 H38       -11.1532   20.8632   26.7309 H           1 DGX       0.2099
     76 H39       -10.2296   24.5469   25.2867 H           1 DGX       0.0645
     77 H40        -8.1055   23.9417   25.1454 H           1 DGX       0.2100
     78 H41        -9.0486   23.6712   27.9916 H           1 DGX       0.0621
     79 H42        -8.3435   26.0166   28.2359 H           1 DGX       0.0255
     80 H43        -9.0266   26.4318   26.6531 H           1 DGX       0.0255
     81 H44        -7.6248   25.3533   26.7654 H           1 DGX       0.0255
@<TRIPOS>BOND
     1    11     1   1
     2     1     2   1
     3     2     3   1
     4     3     5   1
     5     3     4   1
     6     4    29   1
     7    29    36   1
     8    29    30   1
     9    30    31   1
    10    31    33   1
    11    31    32   1
    12    33    35   1
    13    33    34   1
    14    35    37   1
    15    36    35   1
    16     5     6   1
    17    11     6   1
    18     6     7   1
    19     7     8   1
    20     8     9   1
    21     9    16   1
    22     9    10   1
    23    10    12   1
    24    10    11   1
    25    11    22   1
    26    12    13   1
    27    13    15   1
    28    13    14   1
    29    15    21   1
    30    15    20   1
    31    15    16   1
    32    16    18   1
    33    16    17   1
    34    18    19   1
    35    20    19   1
    36    20    23   1
    37    23    26   2
    38    23    24   1
    39    24    25   1
    40    25    27   1
    41    27    28   2
    42    27    26   1
    43     1    38   1
    44     1    39   1
    45     2    40   1
    46     2    41   1
    47     3    42   1
    48     5    43   1
    49     5    44   1
    50     6    45   1
    51     7    46   1
    52     7    47   1
    53     8    48   1
    54     8    49   1
    55     9    50   1
    56    10    51   1
    57    12    52   1
    58    12    53   1
    59    13    54   1
    60    14    55   1
    61    17    56   1
    62    18    57   1
    63    18    58   1
    64    19    59   1
    65    19    60   1
    66    20    61   1
    67    21    62   1
    68    21    63   1
    69    21    64   1
    70    22    65   1
    71    22    66   1
    72    22    67   1
    73    24    68   1
    74    24    69   1
    75    26    70   1
    76    29    71   1
    77    30    72   1
    78    30    73   1
    79    31    74   1
    80    32    75   1
    81    33    76   1
    82    34    77   1
    83    35    78   1
    84    37    79   1
    85    37    80   1
    86    37    81   1
@<TRIPOS>SUBSTRUCTURE
     1  DGX      1

