@<TRIPOS>MOLECULE
1igj_ligand_065
    81    86
SMALL
GAST_HUCK
****
This file was generated by PARSER (from files_GN.cpp)

@<TRIPOS>ATOM
      1 C1        -17.2050   27.3354   31.3359 C.3         1 DGX      -0.0448
      2 C2        -16.9776   25.8920   31.8508 C.3         1 DGX      -0.0260
      3 C3        -16.5854   25.8953   33.3558 C.3         1 DGX       0.0620
      4 O3        -17.5977   26.3941   34.2632 O.3         1 DGX      -0.3480
      5 C4        -15.3186   26.7737   33.5414 C.3         1 DGX      -0.0232
      6 C5        -15.4868   28.2338   32.9862 C.3         1 DGX      -0.0330
      7 C6        -14.1999   29.0790   33.2299 C.3         1 DGX      -0.0493
      8 C7        -13.0353   28.6637   32.3018 C.3         1 DGX      -0.0470
      9 C8        -13.4186   28.6674   30.7883 C.3         1 DGX      -0.0079
     10 C9        -14.7520   27.8795   30.5116 C.3         1 DGX      -0.0276
     11 C10       -15.9582   28.2913   31.4727 C.3         1 DGX      -0.0258
     12 C11       -15.0759   27.9439   28.9825 C.3         1 DGX      -0.0223
     13 C12       -13.9062   27.4284   28.1043 C.3         1 DGX       0.0664
     14 O12       -14.2936   27.4907   26.7260 O.3         1 DGX      -0.3909
     15 C13       -12.5242   28.1672   28.3341 C.3         1 DGX       0.0405
     16 C14       -12.2061   28.2263   29.8749 C.3         1 DGX       0.0799
     17 O14       -11.1305   29.1458   30.1328 O.3         1 DGX      -0.3874
     18 C15       -11.6063   26.8265   30.1661 C.3         1 DGX      -0.0200
     19 C16       -10.7325   26.5003   28.9433 C.3         1 DGX      -0.0318
     20 C17       -11.3585   27.2630   27.7370 C.3         1 DGX       0.0177
     21 C18       -12.6145   29.6065   27.7091 C.3         1 DGX      -0.0516
     22 C19       -16.4926   29.7339   31.1348 C.3         1 DGX      -0.0590
     23 C20       -10.3329   27.8791   26.8807 C.2         1 DGX      -0.0063
     24 C21       -10.0375   27.4416   25.5285 C.3         1 DGX       0.1204
     25 O21        -9.0022   28.3369   25.1325 O.3         1 DGX      -0.2665
     26 C22        -9.5078   28.8807   27.2050 C.2         1 DGX       0.0017
     27 C23        -8.7187   29.1741   26.1486 C.2         1 DGX       0.2187
     28 O23        -7.7979   30.1601   26.0963 O.2         1 DGX      -0.3870
     29 C1X       -18.8801   25.7378   34.2930 C.3         1 DGX       0.1624
     30 C2X       -19.6281   26.1576   35.5855 C.3         1 DGX       0.0270
     31 C3X       -21.1043   25.6732   35.5607 C.3         1 DGX       0.0881
     32 O3X       -21.1428   24.2568   35.7526 O.3         1 DGX      -0.3890
     33 C4X       -21.8028   26.0751   34.2275 C.3         1 DGX       0.1070
     34 O4X       -23.1211   25.5313   34.1593 O.3         1 DGX      -0.3867
     35 C5X       -20.9513   25.6139   33.0095 C.3         1 DGX       0.0871
     36 O5X       -19.6267   26.1599   33.1342 O.3         1 DGX      -0.3456
     37 C6X       -21.5214   26.0799   31.6492 C.3         1 DGX      -0.0361
     38 H1        -17.5444   27.2837   30.3047 H           1 DGX       0.0271
     39 H2        -18.0414   27.7528   31.9025 H           1 DGX       0.0271
     40 H3        -16.1933   25.4052   31.2716 H           1 DGX       0.0290
     41 H4        -17.8778   25.2961   31.6913 H           1 DGX       0.0290
     42 H5        -16.3328   24.8705   33.6532 H           1 DGX       0.0597
     43 H6        -14.4869   26.2689   33.0449 H           1 DGX       0.0293
     44 H7        -15.0740   26.8150   34.6072 H           1 DGX       0.0293
     45 H8        -16.2667   28.6921   33.6046 H           1 DGX       0.0307
     46 H9        -13.8791   28.9790   34.2705 H           1 DGX       0.0268
     47 H10       -14.4167   30.1376   33.0725 H           1 DGX       0.0268
     48 H11       -12.6942   27.6723   32.5966 H           1 DGX       0.0269
     49 H12       -12.2059   29.3551   32.4733 H           1 DGX       0.0269
     50 H13       -13.6150   29.7119   30.5354 H           1 DGX       0.0332
     51 H14       -14.5279   26.8352   30.7216 H           1 DGX       0.0310
     52 H15       -15.3254   28.9634   28.6895 H           1 DGX       0.0293
     53 H16       -15.9408   27.3211   28.7549 H           1 DGX       0.0293
     54 H17       -13.7965   26.3655   28.3460 H           1 DGX       0.0602
     55 H18       -14.4654   26.5668   26.4458 H           1 DGX       0.2098
     56 H19       -11.5081   30.0444   30.0374 H           1 DGX       0.2102
     57 H20       -12.3807   26.0646   30.2776 H           1 DGX       0.0295
     58 H21       -11.0029   26.8317   31.0726 H           1 DGX       0.0295
     59 H22       -10.7088   25.4198   28.7680 H           1 DGX       0.0301
     60 H23        -9.7083   26.8257   29.1494 H           1 DGX       0.0301
     61 H24       -11.8149   26.4904   27.1071 H           1 DGX       0.0550
     62 H25       -12.7458   29.5368   26.6338 H           1 DGX       0.0239
     63 H26       -11.7163   30.1932   27.8867 H           1 DGX       0.0239
     64 H27       -13.4487   30.1754   28.1170 H           1 DGX       0.0239
     65 H28       -17.2180   30.0677   31.8807 H           1 DGX       0.0235
     66 H29       -16.9973   29.7511   30.1667 H           1 DGX       0.0235
     67 H30       -15.6971   30.4763   31.1034 H           1 DGX       0.0235
     68 H31       -10.9056   27.5493   24.8760 H           1 DGX       0.0859
     69 H32        -9.6748   26.4108   25.5100 H           1 DGX       0.0859
     70 H33        -9.4785   29.3534   28.0752 H           1 DGX       0.0295
     71 H34       -18.7549   24.6484   34.2939 H           1 DGX       0.0910
     72 H35       -19.6120   27.2472   35.6751 H           1 DGX       0.0340
     73 H36       -19.1149   25.7423   36.4578 H           1 DGX       0.0340
     74 H37       -21.6375   26.1315   36.3988 H           1 DGX       0.0621
     75 H38       -22.0932   24.0291   35.8350 H           1 DGX       0.2099
     76 H39       -21.8931   27.1647   34.1967 H           1 DGX       0.0645
     77 H40       -23.6220   25.9749   34.8767 H           1 DGX       0.2100
     78 H41       -20.8946   24.5205   32.9876 H           1 DGX       0.0621
     79 H42       -20.8781   25.7277   30.8393 H           1 DGX       0.0255
     80 H43       -21.5695   27.1698   31.6058 H           1 DGX       0.0255
     81 H44       -22.5230   25.6747   31.4921 H           1 DGX       0.0255
@<TRIPOS>BOND
     1    11     1   1
     2     1     2   1
     3     2     3   1
     4     3     5   1
     5     3     4   1
     6     4    29   1
     7    29    36   1
     8    29    30   1
     9    30    31   1
    10    31    33   1
    11    31    32   1
    12    33    35   1
    13    33    34   1
    14    35    37   1
    15    36    35   1
    16     5     6   1
    17    11     6   1
    18     6     7   1
    19     7     8   1
    20     8     9   1
    21     9    16   1
    22     9    10   1
    23    10    12   1
    24    10    11   1
    25    11    22   1
    26    12    13   1
    27    13    15   1
    28    13    14   1
    29    15    21   1
    30    15    20   1
    31    15    16   1
    32    16    18   1
    33    16    17   1
    34    18    19   1
    35    20    19   1
    36    20    23   1
    37    23    26   2
    38    23    24   1
    39    24    25   1
    40    25    27   1
    41    27    28   2
    42    27    26   1
    43     1    38   1
    44     1    39   1
    45     2    40   1
    46     2    41   1
    47     3    42   1
    48     5    43   1
    49     5    44   1
    50     6    45   1
    51     7    46   1
    52     7    47   1
    53     8    48   1
    54     8    49   1
    55     9    50   1
    56    10    51   1
    57    12    52   1
    58    12    53   1
    59    13    54   1
    60    14    55   1
    61    17    56   1
    62    18    57   1
    63    18    58   1
    64    19    59   1
    65    19    60   1
    66    20    61   1
    67    21    62   1
    68    21    63   1
    69    21    64   1
    70    22    65   1
    71    22    66   1
    72    22    67   1
    73    24    68   1
    74    24    69   1
    75    26    70   1
    76    29    71   1
    77    30    72   1
    78    30    73   1
    79    31    74   1
    80    32    75   1
    81    33    76   1
    82    34    77   1
    83    35    78   1
    84    37    79   1
    85    37    80   1
    86    37    81   1
@<TRIPOS>SUBSTRUCTURE
     1  DGX      1

