@<TRIPOS>MOLECULE
1igj_ligand_008
    81    86
SMALL
GAST_HUCK
****
This file was generated by PARSER (from files_GN.cpp)

@<TRIPOS>ATOM
      1 C1        -13.3378   29.4633   28.9272 C.3         1 DGX      -0.0448
      2 C2        -14.6972   29.4649   28.1836 C.3         1 DGX      -0.0260
      3 C3        -15.8659   29.1537   29.1608 C.3         1 DGX       0.0620
      4 O3        -16.0548   30.1275   30.2251 O.3         1 DGX      -0.3480
      5 C4        -15.6077   27.7640   29.7972 C.3         1 DGX      -0.0232
      6 C5        -14.2186   27.6759   30.5257 C.3         1 DGX      -0.0330
      7 C6        -14.0254   26.2735   31.1822 C.3         1 DGX      -0.0493
      8 C7        -13.6878   25.1626   30.1564 C.3         1 DGX      -0.0470
      9 C8        -12.4564   25.5112   29.2623 C.3         1 DGX      -0.0079
     10 C9        -12.6514   26.9190   28.5831 C.3         1 DGX      -0.0276
     11 C10       -12.9782   28.0899   29.6219 C.3         1 DGX      -0.0258
     12 C11       -11.4510   27.2186   27.6284 C.3         1 DGX      -0.0223
     13 C12       -11.2247   26.0958   26.5897 C.3         1 DGX       0.0664
     14 O12       -10.1718   26.4755   25.6990 O.3         1 DGX      -0.3909
     15 C13       -10.9434   24.6714   27.2180 C.3         1 DGX       0.0405
     16 C14       -12.0564   24.3309   28.2887 C.3         1 DGX       0.0799
     17 O14       -11.6100   23.2808   29.1681 O.3         1 DGX      -0.3874
     18 C15       -13.1964   23.7147   27.4393 C.3         1 DGX      -0.0200
     19 C16       -12.4492   22.8179   26.4395 C.3         1 DGX      -0.0318
     20 C17       -11.1345   23.5714   26.0812 C.3         1 DGX       0.0177
     21 C18        -9.5240   24.6624   27.8954 C.3         1 DGX      -0.0516
     22 C19       -11.7398   28.4068   30.5491 C.3         1 DGX      -0.0590
     23 C20        -9.9835   22.7202   25.7285 C.2         1 DGX      -0.0063
     24 C21        -9.7725   21.3300   26.0800 C.3         1 DGX       0.1204
     25 O21        -8.4820   21.0540   25.5354 O.3         1 DGX      -0.2665
     26 C22        -8.9218   23.1520   25.0351 C.2         1 DGX       0.0017
     27 C23        -8.0137   22.1575   24.9218 C.2         1 DGX       0.2187
     28 O23        -6.8087   22.2570   24.3172 O.2         1 DGX      -0.3870
     29 C1X       -16.0548   31.5434   29.9291 C.3         1 DGX       0.1624
     30 C2X       -17.0600   31.9507   28.8152 C.3         1 DGX       0.0270
     31 C3X       -17.0440   33.4903   28.6034 C.3         1 DGX       0.0881
     32 O3X       -15.8146   33.8464   27.9628 O.3         1 DGX      -0.3890
     33 C4X       -17.2315   34.2500   29.9512 C.3         1 DGX       0.1070
     34 O4X       -17.0181   35.6526   29.7627 O.3         1 DGX      -0.3867
     35 C5X       -16.2857   33.6838   31.0610 C.3         1 DGX       0.0871
     36 O5X       -16.3984   32.2394   31.1510 O.3         1 DGX      -0.3456
     37 C6X       -16.5896   34.2798   32.4572 C.3         1 DGX      -0.0361
     38 H1        -12.5575   29.7756   28.2329 H           1 DGX       0.0271
     39 H2        -13.3942   30.2570   29.6837 H           1 DGX       0.0271
     40 H3        -14.6863   28.7314   27.3697 H           1 DGX       0.0290
     41 H4        -14.8694   30.4385   27.7287 H           1 DGX       0.0290
     42 H5        -16.7895   29.0895   28.5810 H           1 DGX       0.0597
     43 H6        -15.6749   27.0044   29.0117 H           1 DGX       0.0293
     44 H7        -16.4091   27.5580   30.5173 H           1 DGX       0.0293
     45 H8        -14.2873   28.3879   31.3569 H           1 DGX       0.0307
     46 H9        -14.9295   25.9871   31.7288 H           1 DGX       0.0268
     47 H10       -13.2212   26.3272   31.9191 H           1 DGX       0.0268
     48 H11       -14.5625   24.9799   29.5303 H           1 DGX       0.0269
     49 H12       -13.4906   24.2415   30.7093 H           1 DGX       0.0269
     50 H13       -11.6086   25.6167   29.9454 H           1 DGX       0.0332
     51 H14       -13.5219   26.8162   27.9337 H           1 DGX       0.0310
     52 H15       -10.5315   27.3736   28.1935 H           1 DGX       0.0293
     53 H16       -11.6468   28.1309   27.0603 H           1 DGX       0.0293
     54 H17       -12.1344   26.0557   25.9806 H           1 DGX       0.0602
     55 H18       -10.5249   27.2224   25.1712 H           1 DGX       0.2098
     56 H19       -11.1712   22.6117   28.6101 H           1 DGX       0.2102
     57 H20       -13.7624   24.4870   26.9139 H           1 DGX       0.0295
     58 H21       -13.8891   23.1240   28.0437 H           1 DGX       0.0295
     59 H22       -13.0707   22.6150   25.5637 H           1 DGX       0.0301
     60 H23       -12.2453   21.8663   26.9325 H           1 DGX       0.0301
     61 H24       -11.3738   24.0625   25.1325 H           1 DGX       0.0550
     62 H25        -8.7503   24.9973   27.2042 H           1 DGX       0.0239
     63 H26        -9.2534   23.6598   28.2321 H           1 DGX       0.0239
     64 H27        -9.4946   25.3164   28.7673 H           1 DGX       0.0239
     65 H28       -11.9998   29.1440   31.3143 H           1 DGX       0.0235
     66 H29       -10.9117   28.8220   29.9728 H           1 DGX       0.0235
     67 H30       -11.3693   27.5274   31.0743 H           1 DGX       0.0235
     68 H31       -10.5189   20.6789   25.6206 H           1 DGX       0.0859
     69 H32        -9.7633   21.1963   27.1616 H           1 DGX       0.0859
     70 H33        -8.8024   24.0635   24.6627 H           1 DGX       0.0295
     71 H34       -15.0376   31.8323   29.6381 H           1 DGX       0.0910
     72 H35       -18.0715   31.6333   29.1011 H           1 DGX       0.0340
     73 H36       -16.7897   31.4552   27.8760 H           1 DGX       0.0340
     74 H37       -17.8591   33.7630   27.9230 H           1 DGX       0.0621
     75 H38       -15.9574   34.7517   27.6076 H           1 DGX       0.2099
     76 H39       -18.2707   34.1203   30.2730 H           1 DGX       0.0645
     77 H40       -16.0597   35.7386   29.5782 H           1 DGX       0.2100
     78 H41       -15.2503   33.9516   30.8104 H           1 DGX       0.0621
     79 H42       -15.8912   33.8662   33.1894 H           1 DGX       0.0255
     80 H43       -17.6100   34.0361   32.7677 H           1 DGX       0.0255
     81 H44       -16.4739   35.3675   32.4438 H           1 DGX       0.0255
@<TRIPOS>BOND
     1    11     1   1
     2     1     2   1
     3     2     3   1
     4     3     5   1
     5     3     4   1
     6     4    29   1
     7    29    36   1
     8    29    30   1
     9    30    31   1
    10    31    33   1
    11    31    32   1
    12    33    35   1
    13    33    34   1
    14    35    37   1
    15    36    35   1
    16     5     6   1
    17    11     6   1
    18     6     7   1
    19     7     8   1
    20     8     9   1
    21     9    16   1
    22     9    10   1
    23    10    12   1
    24    10    11   1
    25    11    22   1
    26    12    13   1
    27    13    15   1
    28    13    14   1
    29    15    21   1
    30    15    20   1
    31    15    16   1
    32    16    18   1
    33    16    17   1
    34    18    19   1
    35    20    19   1
    36    20    23   1
    37    23    26   2
    38    23    24   1
    39    24    25   1
    40    25    27   1
    41    27    28   2
    42    27    26   1
    43     1    38   1
    44     1    39   1
    45     2    40   1
    46     2    41   1
    47     3    42   1
    48     5    43   1
    49     5    44   1
    50     6    45   1
    51     7    46   1
    52     7    47   1
    53     8    48   1
    54     8    49   1
    55     9    50   1
    56    10    51   1
    57    12    52   1
    58    12    53   1
    59    13    54   1
    60    14    55   1
    61    17    56   1
    62    18    57   1
    63    18    58   1
    64    19    59   1
    65    19    60   1
    66    20    61   1
    67    21    62   1
    68    21    63   1
    69    21    64   1
    70    22    65   1
    71    22    66   1
    72    22    67   1
    73    24    68   1
    74    24    69   1
    75    26    70   1
    76    29    71   1
    77    30    72   1
    78    30    73   1
    79    31    74   1
    80    32    75   1
    81    33    76   1
    82    34    77   1
    83    35    78   1
    84    37    79   1
    85    37    80   1
    86    37    81   1
@<TRIPOS>SUBSTRUCTURE
     1  DGX      1

