@<TRIPOS>MOLECULE
1jyq_ligand_038
    85    87
SMALL
GAST_HUCK
****
This file was generated by PARSER (from files_GN.cpp)

@<TRIPOS>ATOM
      1 C1        -29.4986   47.5503   28.4783 C.ar        1 MOL      -0.0801
      2 C2        -30.1623   46.3178   28.3063 C.ar        1 MOL      -0.0711
      3 C3        -29.6977   45.1508   28.9675 C.ar        1 MOL      -0.0250
      4 C4        -28.5696   45.2587   29.8136 C.ar        1 MOL      -0.0414
      5 C6        -28.3685   47.6308   29.3125 C.ar        1 MOL      -0.0516
      6 C12       -30.3728   43.8458   28.7968 C.3         1 MOL       0.1084
      7 O13       -29.3741   42.8537   28.5563 O.3         1 MOL      -0.2508
      8 C16       -29.5584   41.5172   28.4590 C.2         1 MOL       0.3241
      9 O18       -30.8022   40.9766   28.5100 O.2         1 MOL      -0.3773
     10 N11       -26.8210   46.5690   30.7755 N.pl3       1 MOL      -0.3383
     11 C5        -27.8912   46.4830   29.9759 C.ar        1 MOL       0.0282
     12 N         -28.4436   40.7673   28.3125 N.am        1 MOL      -0.2380
     13 CA        -28.3664   39.3301   28.2698 C.3         1 MOL       0.1484
     14 C         -27.7078   38.8519   29.4852 C.2         1 MOL       0.2046
     15 O         -26.8886   37.9365   29.4340 O.2         1 MOL      -0.3944
     16 CB        -27.7220   38.9052   26.9061 C.3         1 MOL       0.0400
     17 CG        -26.4438   39.5878   26.5616 C.ar        1 MOL      -0.0004
     18 CD1       -25.1896   38.9465   26.7073 C.ar        1 MOL      -0.0239
     19 CD2       -26.4613   40.9143   26.0619 C.ar        1 MOL      -0.0239
     20 CE1       -23.9951   39.6143   26.3819 C.ar        1 MOL       0.0115
     21 CE2       -25.2704   41.5828   25.7465 C.ar        1 MOL       0.0115
     22 CZ        -24.0289   40.9301   25.8794 C.ar        1 MOL       0.1728
     23 OH        -22.8615   41.5974   25.6279 O.3         1 MOL      -0.2040
     24 P         -22.5047   41.7186   24.1136 P.3         1 MOL       0.1348
     25 O1P       -22.2660   40.4306   23.5076 O.co2       1 MOL      -0.6653
     26 O2P       -21.2789   42.4765   24.0142 O.co2       1 MOL      -0.6653
     27 O3P       -23.5093   42.4200   23.3548 O.co2       1 MOL      -0.6653
     28 N         -28.1203   39.3288   30.6627 N.am        1 MOL      -0.2712
     29 CA        -27.7839   38.9518   32.0223 C.3         1 MOL       0.1461
     30 CH3       -27.9680   40.2725   32.8483 C.3         1 MOL      -0.0287
     31 C         -26.3862   38.4980   32.1454 C.2         1 MOL       0.2294
     32 O         -26.1406   37.3576   32.5389 O.2         1 MOL      -0.3416
     33 CB        -28.8733   37.8800   32.4370 C.3         1 MOL       0.0325
     34 CG        -28.7356   37.2464   33.7892 C.ar        1 MOL      -0.0034
     35 CD1       -29.0001   37.9814   34.9687 C.ar        1 MOL      -0.0242
     36 CD2       -28.3450   35.8902   33.9232 C.ar        1 MOL      -0.0242
     37 CE1       -28.8029   37.4121   36.2362 C.ar        1 MOL       0.0115
     38 CE2       -28.1513   35.3182   35.1911 C.ar        1 MOL       0.0115
     39 CZ        -28.3815   36.0704   36.3625 C.ar        1 MOL       0.1728
     40 OH        -28.0726   35.5458   37.5874 O.3         1 MOL      -0.2040
     41 P         -29.2543   34.8297   38.3028 P.3         1 MOL       0.1348
     42 O1P       -28.7663   34.3244   39.5606 O.co2       1 MOL      -0.6653
     43 O2P       -29.7371   33.6909   37.5631 O.co2       1 MOL      -0.6653
     44 O3P       -30.3404   35.7262   38.6040 O.co2       1 MOL      -0.6653
     45 N         -25.3800   39.2821   31.7563 N.am        1 MOL      -0.2663
     46 CA        -23.9916   38.9161   31.7219 C.3         1 MOL       0.1112
     47 C         -23.4201   38.7208   33.0772 C.2         1 MOL       0.0626
     48 O         -22.2340   38.0892   33.2418 O.co2       1 MOL      -0.5664
     49 CB        -23.1814   39.9595   30.8997 C.3         1 MOL       0.0720
     50 CG        -22.3065   39.3912   29.8826 C.2         1 MOL       0.1774
     51 OD1       -22.7960   38.7592   28.9504 O.2         1 MOL      -0.3971
     52 ND2       -20.9986   39.5805   29.8614 N.am        1 MOL      -0.3007
     53 OXT       -24.0593   39.1418   34.1919 O.co2       1 MOL      -0.5664
     54 H1        -29.8546   48.3930   28.0107 H           1 MOL       0.0566
     55 H2        -30.9862   46.2811   27.6939 H           1 MOL       0.0448
     56 H3        -28.2286   44.4296   30.3051 H           1 MOL       0.0451
     57 H4        -27.8948   48.5299   29.4246 H           1 MOL       0.0459
     58 H5        -31.0745   43.8510   27.9651 H           1 MOL       0.0774
     59 H6        -30.9213   43.6083   29.7075 H           1 MOL       0.0774
     60 H7        -26.5034   45.7856   31.2445 H           1 MOL       0.1718
     61 H8        -26.3679   47.4162   30.8844 H           1 MOL       0.1718
     62 H9        -27.6061   41.2469   28.3076 H           1 MOL       0.1902
     63 H10       -29.3727   38.8947   28.2970 H           1 MOL       0.0839
     64 H11       -28.4481   39.0945   26.1116 H           1 MOL       0.0584
     65 H12       -27.5835   37.8197   26.9097 H           1 MOL       0.0584
     66 H13       -25.1451   37.9915   27.0766 H           1 MOL       0.0703
     67 H14       -27.3469   41.4112   25.9389 H           1 MOL       0.0703
     68 H15       -23.1020   39.1333   26.5056 H           1 MOL       0.0736
     69 H16       -25.3012   42.5528   25.4186 H           1 MOL       0.0736
     70 H17       -28.8190   39.9989   30.6039 H           1 MOL       0.1842
     71 H18       -27.6548   40.1320   33.8842 H           1 MOL       0.0244
     72 H19       -29.0111   40.5982   32.8419 H           1 MOL       0.0244
     73 H20       -27.3651   41.0889   32.4158 H           1 MOL       0.0244
     74 H21       -28.8815   37.0895   31.6755 H           1 MOL       0.0549
     75 H22       -29.8704   38.3325   32.3915 H           1 MOL       0.0549
     76 H23       -29.3333   38.9499   34.9127 H           1 MOL       0.0703
     77 H24       -28.1683   35.3206   33.0876 H           1 MOL       0.0703
     78 H25       -28.9576   37.9751   37.0743 H           1 MOL       0.0736
     79 H26       -27.8330   34.3481   35.2598 H           1 MOL       0.0736
     80 H27       -25.6143   40.1477   31.3959 H           1 MOL       0.1883
     81 H28       -23.9304   37.9597   31.2018 H           1 MOL       0.0754
     82 H29       -22.5912   40.5956   31.5801 H           1 MOL       0.0544
     83 H30       -23.8662   40.6360   30.3628 H           1 MOL       0.0544
     84 H31       -20.4676   39.2053   29.1406 H           1 MOL       0.1814
     85 H32       -20.5652   40.0619   30.5885 H           1 MOL       0.1814
@<TRIPOS>BOND
     1     1     5  ar
     2     2     1  ar
     3     3     2  ar
     4     6     3   1
     5     3     4  ar
     6     4    11  ar
     7    11    10   1
     8    11     5  ar
     9     7     6   1
    10     8     7   1
    11     8     9   2
    12    13    12   1
    13    13    16   1
    14    14    13   1
    15    14    15   2
    16    16    17   1
    17    17    19  ar
    18    17    18  ar
    19    18    20  ar
    20    20    22  ar
    21    22    23   1
    22    21    22  ar
    23    19    21  ar
    24    23    24   1
    25    24    27  ar
    26    24    26  ar
    27    24    25  ar
    28    29    28   1
    29    29    33   1
    30    31    29   1
    31    29    30   1
    32    31    32   2
    33    33    34   1
    34    34    36  ar
    35    34    35  ar
    36    35    37  ar
    37    37    39  ar
    38    39    40   1
    39    38    39  ar
    40    36    38  ar
    41    40    41   1
    42    41    44  ar
    43    41    43  ar
    44    41    42  ar
    45    46    47   1
    46    46    49   1
    47    45    46   1
    48    49    50   1
    49    50    51   2
    50    50    52  am
    51    47    53  ar
    52    47    48  ar
    53    28    14  am
    54    12     8  am
    55    31    45  am
    56     1    54   1
    57     2    55   1
    58     4    56   1
    59     5    57   1
    60     6    58   1
    61     6    59   1
    62    10    60   1
    63    10    61   1
    64    12    62   1
    65    13    63   1
    66    16    64   1
    67    16    65   1
    68    18    66   1
    69    19    67   1
    70    20    68   1
    71    21    69   1
    72    28    70   1
    73    30    71   1
    74    30    72   1
    75    30    73   1
    76    33    74   1
    77    33    75   1
    78    35    76   1
    79    36    77   1
    80    37    78   1
    81    38    79   1
    82    45    80   1
    83    46    81   1
    84    49    82   1
    85    49    83   1
    86    52    84   1
    87    52    85   1
@<TRIPOS>SUBSTRUCTURE
     1  MOL      1

