@<TRIPOS>MOLECULE
1jyq_ligand_039
    85    87
SMALL
GAST_HUCK
****
This file was generated by PARSER (from files_GN.cpp)

@<TRIPOS>ATOM
      1 C1        -34.3781   43.9170   39.0446 C.ar        1 MOL      -0.0801
      2 C2        -33.7145   45.1395   39.2630 C.ar        1 MOL      -0.0711
      3 C3        -34.0668   46.2937   38.5261 C.ar        1 MOL      -0.0250
      4 C4        -35.1042   46.1995   37.5659 C.ar        1 MOL      -0.0414
      5 C6        -35.4069   43.8340   38.0886 C.ar        1 MOL      -0.0516
      6 C12       -33.3430   47.5657   38.7729 C.3         1 MOL       0.1084
      7 O13       -31.9443   47.4111   38.4964 O.3         1 MOL      -0.2508
      8 C16       -31.3595   47.3190   37.2733 C.2         1 MOL       0.3241
      9 O18       -32.1007   47.4343   36.1432 O.2         1 MOL      -0.3773
     10 N11       -36.7553   44.8945   36.4318 N.pl3       1 MOL      -0.3383
     11 C5        -35.7696   44.9757   37.3446 C.ar        1 MOL       0.0282
     12 N         -30.0197   47.1224   37.2402 N.am        1 MOL      -0.2380
     13 CA        -29.1768   47.0787   36.0764 C.3         1 MOL       0.1484
     14 C         -28.7440   48.4386   35.7531 C.2         1 MOL       0.2046
     15 O         -29.3198   49.0733   34.8788 O.2         1 MOL      -0.3944
     16 CB        -29.7598   46.2573   34.8645 C.3         1 MOL       0.0400
     17 CG        -28.9931   45.0203   34.5264 C.ar        1 MOL      -0.0004
     18 CD1       -27.7312   45.1257   33.8963 C.ar        1 MOL      -0.0239
     19 CD2       -29.5196   43.7302   34.7732 C.ar        1 MOL      -0.0239
     20 CE1       -27.0187   43.9779   33.5135 C.ar        1 MOL       0.0115
     21 CE2       -28.8086   42.5806   34.3791 C.ar        1 MOL       0.0115
     22 CZ        -27.5701   42.6983   33.7148 C.ar        1 MOL       0.1728
     23 OH        -26.8795   41.5828   33.3398 O.3         1 MOL      -0.2040
     24 P         -27.0794   41.1906   31.8422 P.3         1 MOL       0.1348
     25 O1P       -26.3181   39.9962   31.5859 O.co2       1 MOL      -0.6653
     26 O2P       -26.5886   42.1970   30.9346 O.co2       1 MOL      -0.6653
     27 O3P       -28.4541   40.8855   31.5284 O.co2       1 MOL      -0.6653
     28 N         -27.8404   49.0166   36.5366 N.am        1 MOL      -0.2712
     29 CA        -27.3614   50.3868   36.5732 C.3         1 MOL       0.1461
     30 CH3       -26.2411   50.3263   37.6665 C.3         1 MOL      -0.0287
     31 C         -28.4161   51.3098   37.0432 C.2         1 MOL       0.2294
     32 O         -29.5839   50.9409   37.1198 O.2         1 MOL      -0.3416
     33 CB        -26.7407   50.8905   35.2013 C.3         1 MOL       0.0325
     34 CG        -26.7241   49.9255   34.0591 C.ar        1 MOL      -0.0034
     35 CD1       -27.5663   50.1206   32.9353 C.ar        1 MOL      -0.0242
     36 CD2       -25.8096   48.8437   34.0230 C.ar        1 MOL      -0.0242
     37 CE1       -27.5314   49.2396   31.8426 C.ar        1 MOL       0.0115
     38 CE2       -25.7924   47.9400   32.9407 C.ar        1 MOL       0.0115
     39 CZ        -26.6611   48.1289   31.8444 C.ar        1 MOL       0.1728
     40 OH        -26.5832   47.2969   30.7563 O.3         1 MOL      -0.2040
     41 P         -27.9093   46.5620   30.4063 P.3         1 MOL       0.1348
     42 O1P       -27.8894   46.4039   28.9758 O.co2       1 MOL      -0.6653
     43 O2P       -29.1342   47.2809   30.6705 O.co2       1 MOL      -0.6653
     44 O3P       -28.0147   45.2110   30.9259 O.co2       1 MOL      -0.6653
     45 N         -28.1252   52.5597   37.4046 N.am        1 MOL      -0.2663
     46 CA        -29.0255   53.5688   37.8958 C.3         1 MOL       0.1112
     47 C         -28.6441   54.8544   37.2659 C.2         1 MOL       0.0626
     48 O         -28.5857   54.9875   35.9207 O.co2       1 MOL      -0.5664
     49 CB        -28.9780   53.6098   39.4560 C.3         1 MOL       0.0720
     50 CG        -29.1211   52.3391   40.1519 C.2         1 MOL       0.1774
     51 OD1       -29.5429   51.3271   39.6094 O.2         1 MOL      -0.3971
     52 ND2       -28.8259   52.2414   41.4331 N.am        1 MOL      -0.3007
     53 OXT       -28.3406   55.9468   38.0030 O.co2       1 MOL      -0.5664
     54 H1        -34.1133   43.0886   39.5828 H           1 MOL       0.0566
     55 H2        -32.9686   45.1781   39.9620 H           1 MOL       0.0448
     56 H3        -35.3729   47.0212   37.0234 H           1 MOL       0.0451
     57 H4        -35.8813   42.9422   37.9352 H           1 MOL       0.0459
     58 H5        -33.4584   47.8325   39.8261 H           1 MOL       0.0774
     59 H6        -33.7464   48.3938   38.1806 H           1 MOL       0.0774
     60 H7        -37.0104   45.6797   35.9208 H           1 MOL       0.1718
     61 H8        -37.2129   44.0509   36.2834 H           1 MOL       0.1718
     62 H9        -29.5664   47.0675   38.0995 H           1 MOL       0.1902
     63 H10       -28.2890   46.5411   36.4313 H           1 MOL       0.0839
     64 H11       -29.7682   46.8681   33.9539 H           1 MOL       0.0584
     65 H12       -30.8032   46.0074   35.0650 H           1 MOL       0.0584
     66 H13       -27.3275   46.0453   33.7117 H           1 MOL       0.0703
     67 H14       -30.4304   43.6200   35.2295 H           1 MOL       0.0703
     68 H15       -26.1104   44.0752   33.0635 H           1 MOL       0.0736
     69 H16       -29.2087   41.6565   34.5578 H           1 MOL       0.0736
     70 H17       -27.4821   48.4374   37.2310 H           1 MOL       0.1842
     71 H18       -25.7452   51.2944   37.7891 H           1 MOL       0.0244
     72 H19       -25.4710   49.6037   37.3927 H           1 MOL       0.0244
     73 H20       -26.6526   50.0350   38.6361 H           1 MOL       0.0244
     74 H21       -25.7079   51.2098   35.3405 H           1 MOL       0.0549
     75 H22       -27.2607   51.7943   34.8731 H           1 MOL       0.0549
     76 H23       -28.2391   50.8880   32.9154 H           1 MOL       0.0703
     77 H24       -25.1729   48.6844   34.8079 H           1 MOL       0.0703
     78 H25       -28.1481   49.4023   31.0386 H           1 MOL       0.0736
     79 H26       -25.1263   47.1634   32.9378 H           1 MOL       0.0736
     80 H27       -27.1908   52.8119   37.3829 H           1 MOL       0.1883
     81 H28       -30.0611   53.3731   37.5930 H           1 MOL       0.0754
     82 H29       -29.7876   54.2566   39.8214 H           1 MOL       0.0544
     83 H30       -28.0205   54.0675   39.7631 H           1 MOL       0.0544
     84 H31       -28.9212   51.3812   41.8954 H           1 MOL       0.1814
     85 H32       -28.4993   53.0227   41.9190 H           1 MOL       0.1814
@<TRIPOS>BOND
     1     1     5  ar
     2     2     1  ar
     3     3     2  ar
     4     6     3   1
     5     3     4  ar
     6     4    11  ar
     7    11    10   1
     8    11     5  ar
     9     7     6   1
    10     8     7   1
    11     8     9   2
    12    13    12   1
    13    13    16   1
    14    14    13   1
    15    14    15   2
    16    16    17   1
    17    17    19  ar
    18    17    18  ar
    19    18    20  ar
    20    20    22  ar
    21    22    23   1
    22    21    22  ar
    23    19    21  ar
    24    23    24   1
    25    24    27  ar
    26    24    26  ar
    27    24    25  ar
    28    29    28   1
    29    29    33   1
    30    31    29   1
    31    29    30   1
    32    31    32   2
    33    33    34   1
    34    34    36  ar
    35    34    35  ar
    36    35    37  ar
    37    37    39  ar
    38    39    40   1
    39    38    39  ar
    40    36    38  ar
    41    40    41   1
    42    41    44  ar
    43    41    43  ar
    44    41    42  ar
    45    46    47   1
    46    46    49   1
    47    45    46   1
    48    49    50   1
    49    50    51   2
    50    50    52  am
    51    47    53  ar
    52    47    48  ar
    53    28    14  am
    54    12     8  am
    55    31    45  am
    56     1    54   1
    57     2    55   1
    58     4    56   1
    59     5    57   1
    60     6    58   1
    61     6    59   1
    62    10    60   1
    63    10    61   1
    64    12    62   1
    65    13    63   1
    66    16    64   1
    67    16    65   1
    68    18    66   1
    69    19    67   1
    70    20    68   1
    71    21    69   1
    72    28    70   1
    73    30    71   1
    74    30    72   1
    75    30    73   1
    76    33    74   1
    77    33    75   1
    78    35    76   1
    79    36    77   1
    80    37    78   1
    81    38    79   1
    82    45    80   1
    83    46    81   1
    84    49    82   1
    85    49    83   1
    86    52    84   1
    87    52    85   1
@<TRIPOS>SUBSTRUCTURE
     1  MOL      1

