@<TRIPOS>MOLECULE
1jyq_ligand_092
    85    87
SMALL
GAST_HUCK
****
This file was generated by PARSER (from files_GN.cpp)

@<TRIPOS>ATOM
      1 C1        -26.4463   50.0894   28.5510 C.ar        1 MOL      -0.0801
      2 C2        -25.4843   49.7969   29.5354 C.ar        1 MOL      -0.0711
      3 C3        -24.7268   48.6024   29.4710 C.ar        1 MOL      -0.0250
      4 C4        -24.9473   47.7199   28.3865 C.ar        1 MOL      -0.0414
      5 C6        -26.6521   49.2050   27.4775 C.ar        1 MOL      -0.0516
      6 C12       -23.7344   48.2615   30.5258 C.3         1 MOL       0.1084
      7 O13       -24.3433   47.5126   31.5892 O.3         1 MOL      -0.2508
      8 C16       -25.1457   48.0148   32.5599 C.2         1 MOL       0.3241
      9 O18       -25.3922   49.3521   32.6198 O.2         1 MOL      -0.3773
     10 N11       -26.0658   47.1837   26.3500 N.pl3       1 MOL      -0.3383
     11 C5        -25.8923   48.0215   27.3857 C.ar        1 MOL       0.0282
     12 N         -25.7302   47.1743   33.4406 N.am        1 MOL      -0.2380
     13 CA        -26.6688   47.5432   34.4774 C.3         1 MOL       0.1484
     14 C         -27.8617   48.2383   33.9744 C.2         1 MOL       0.2046
     15 O         -27.9633   48.4854   32.7746 O.2         1 MOL      -0.3944
     16 CB        -25.9091   48.2111   35.6900 C.3         1 MOL       0.0400
     17 CG        -26.3222   49.5726   36.1489 C.ar        1 MOL      -0.0004
     18 CD1       -26.1659   50.6995   35.3059 C.ar        1 MOL      -0.0239
     19 CD2       -26.8005   49.7805   37.4678 C.ar        1 MOL      -0.0239
     20 CE1       -26.4699   51.9954   35.7714 C.ar        1 MOL       0.0115
     21 CE2       -27.1328   51.0734   37.9164 C.ar        1 MOL       0.0115
     22 CZ        -26.9854   52.1895   37.0701 C.ar        1 MOL       0.1728
     23 OH        -27.2973   53.4402   37.5567 O.3         1 MOL      -0.2040
     24 P         -28.4685   54.1444   36.8104 P.3         1 MOL       0.1348
     25 O1P       -29.4194   53.2689   36.1711 O.co2       1 MOL      -0.6653
     26 O2P       -27.9684   55.0822   35.8370 O.co2       1 MOL      -0.6653
     27 O3P       -29.2221   54.9291   37.7543 O.co2       1 MOL      -0.6653
     28 N         -28.8307   48.5929   34.8200 N.am        1 MOL      -0.2712
     29 CA        -30.0228   49.3809   34.5579 C.3         1 MOL       0.1461
     30 CH3       -29.6021   50.7335   33.8589 C.3         1 MOL      -0.0287
     31 C         -30.5947   49.6344   35.8983 C.2         1 MOL       0.2294
     32 O         -30.5649   50.7660   36.3767 O.2         1 MOL      -0.3416
     33 CB        -31.0347   48.5760   33.6449 C.3         1 MOL       0.0325
     34 CG        -32.3598   49.2163   33.3738 C.ar        1 MOL      -0.0034
     35 CD1       -32.5735   49.9574   32.1849 C.ar        1 MOL      -0.0242
     36 CD2       -33.4296   49.0940   34.2872 C.ar        1 MOL      -0.0242
     37 CE1       -33.8080   50.5814   31.9347 C.ar        1 MOL       0.0115
     38 CE2       -34.6577   49.7392   34.0512 C.ar        1 MOL       0.0115
     39 CZ        -34.8493   50.5155   32.8905 C.ar        1 MOL       0.1728
     40 OH        -36.0702   51.0924   32.6573 O.3         1 MOL      -0.2040
     41 P         -36.1842   52.5617   33.1599 P.3         1 MOL       0.1348
     42 O1P       -37.5418   52.9983   32.9498 O.co2       1 MOL      -0.6653
     43 O2P       -35.3370   53.4543   32.4091 O.co2       1 MOL      -0.6653
     44 O3P       -35.9090   52.7023   34.5688 O.co2       1 MOL      -0.6653
     45 N         -31.1086   48.6561   36.6455 N.am        1 MOL      -0.2663
     46 CA        -31.7473   48.7497   37.9338 C.3         1 MOL       0.1112
     47 C         -32.7014   49.8890   38.0012 C.2         1 MOL       0.0626
     48 O         -32.3037   51.1322   38.3593 O.co2       1 MOL      -0.5664
     49 CB        -30.7116   48.6998   39.1020 C.3         1 MOL       0.0720
     50 CG        -31.1290   49.3473   40.3248 C.2         1 MOL       0.1774
     51 OD1       -30.3969   50.1578   40.8862 O.2         1 MOL      -0.3971
     52 ND2       -32.3034   49.1072   40.8847 N.am        1 MOL      -0.3007
     53 OXT       -34.0298   49.6827   37.8495 O.co2       1 MOL      -0.5664
     54 H1        -26.9949   50.9512   28.6164 H           1 MOL       0.0566
     55 H2        -25.3424   50.4658   30.2968 H           1 MOL       0.0448
     56 H3        -24.4110   46.8496   28.3195 H           1 MOL       0.0451
     57 H4        -27.3539   49.4289   26.7676 H           1 MOL       0.0459
     58 H5        -23.2492   49.1587   30.9230 H           1 MOL       0.0774
     59 H6        -22.9422   47.6453   30.0987 H           1 MOL       0.0774
     60 H7        -25.5311   46.3770   26.2842 H           1 MOL       0.1718
     61 H8        -26.7164   47.3862   25.6607 H           1 MOL       0.1718
     62 H9        -25.5072   46.2311   33.3717 H           1 MOL       0.1902
     63 H10       -27.0505   46.5822   34.8403 H           1 MOL       0.0839
     64 H11       -24.8338   48.2583   35.4772 H           1 MOL       0.0584
     65 H12       -25.9756   47.5211   36.5431 H           1 MOL       0.0584
     66 H13       -25.8086   50.5844   34.3620 H           1 MOL       0.0703
     67 H14       -26.9193   48.9884   38.1076 H           1 MOL       0.0703
     68 H15       -26.3195   52.7955   35.1512 H           1 MOL       0.0736
     69 H16       -27.4698   51.2038   38.8760 H           1 MOL       0.0736
     70 H17       -28.6817   48.3348   35.7467 H           1 MOL       0.1842
     71 H18       -30.4268   51.4520   33.8778 H           1 MOL       0.0244
     72 H19       -29.3314   50.5753   32.8133 H           1 MOL       0.0244
     73 H20       -28.7489   51.1856   34.3707 H           1 MOL       0.0244
     74 H21       -31.2419   47.5879   34.0627 H           1 MOL       0.0549
     75 H22       -30.5465   48.3674   32.6915 H           1 MOL       0.0549
     76 H23       -31.8336   50.0493   31.4838 H           1 MOL       0.0703
     77 H24       -33.3260   48.5358   35.1360 H           1 MOL       0.0703
     78 H25       -33.9456   51.0985   31.0624 H           1 MOL       0.0736
     79 H26       -35.4164   49.6444   34.7318 H           1 MOL       0.0736
     80 H27       -31.0887   47.7663   36.2618 H           1 MOL       0.1883
     81 H28       -32.3460   47.8389   38.0219 H           1 MOL       0.0754
     82 H29       -29.7601   49.1272   38.7657 H           1 MOL       0.0544
     83 H30       -30.5139   47.6497   39.3350 H           1 MOL       0.0544
     84 H31       -32.5610   49.5703   41.6923 H           1 MOL       0.1814
     85 H32       -32.8934   48.4390   40.4999 H           1 MOL       0.1814
@<TRIPOS>BOND
     1     1     5  ar
     2     2     1  ar
     3     3     2  ar
     4     6     3   1
     5     3     4  ar
     6     4    11  ar
     7    11    10   1
     8    11     5  ar
     9     7     6   1
    10     8     7   1
    11     8     9   2
    12    13    12   1
    13    13    16   1
    14    14    13   1
    15    14    15   2
    16    16    17   1
    17    17    19  ar
    18    17    18  ar
    19    18    20  ar
    20    20    22  ar
    21    22    23   1
    22    21    22  ar
    23    19    21  ar
    24    23    24   1
    25    24    27  ar
    26    24    26  ar
    27    24    25  ar
    28    29    28   1
    29    29    33   1
    30    31    29   1
    31    29    30   1
    32    31    32   2
    33    33    34   1
    34    34    36  ar
    35    34    35  ar
    36    35    37  ar
    37    37    39  ar
    38    39    40   1
    39    38    39  ar
    40    36    38  ar
    41    40    41   1
    42    41    44  ar
    43    41    43  ar
    44    41    42  ar
    45    46    47   1
    46    46    49   1
    47    45    46   1
    48    49    50   1
    49    50    51   2
    50    50    52  am
    51    47    53  ar
    52    47    48  ar
    53    28    14  am
    54    12     8  am
    55    31    45  am
    56     1    54   1
    57     2    55   1
    58     4    56   1
    59     5    57   1
    60     6    58   1
    61     6    59   1
    62    10    60   1
    63    10    61   1
    64    12    62   1
    65    13    63   1
    66    16    64   1
    67    16    65   1
    68    18    66   1
    69    19    67   1
    70    20    68   1
    71    21    69   1
    72    28    70   1
    73    30    71   1
    74    30    72   1
    75    30    73   1
    76    33    74   1
    77    33    75   1
    78    35    76   1
    79    36    77   1
    80    37    78   1
    81    38    79   1
    82    45    80   1
    83    46    81   1
    84    49    82   1
    85    49    83   1
    86    52    84   1
    87    52    85   1
@<TRIPOS>SUBSTRUCTURE
     1  MOL      1

