@<TRIPOS>MOLECULE
1jyq_ligand_054
    85    87
SMALL
GAST_HUCK
****
This file was generated by PARSER (from files_GN.cpp)

@<TRIPOS>ATOM
      1 C1        -25.2485   47.1356   28.1618 C.ar        1 MOL      -0.0801
      2 C2        -26.4272   47.7168   28.6665 C.ar        1 MOL      -0.0711
      3 C3        -26.3826   48.5791   29.7878 C.ar        1 MOL      -0.0250
      4 C4        -25.1309   48.8414   30.3942 C.ar        1 MOL      -0.0414
      5 C6        -24.0110   47.4091   28.7703 C.ar        1 MOL      -0.0516
      6 C12       -27.6075   49.2205   30.3248 C.3         1 MOL       0.1084
      7 O13       -27.9539   48.6137   31.5733 O.3         1 MOL      -0.2508
      8 C16       -29.1747   48.1950   31.9941 C.2         1 MOL       0.3241
      9 O18       -30.2859   48.3846   31.2423 O.2         1 MOL      -0.3773
     10 N11       -22.7621   48.5226   30.4622 N.pl3       1 MOL      -0.3383
     11 C5        -23.9488   48.2646   29.8868 C.ar        1 MOL       0.0282
     12 N         -29.2195   47.5557   33.1815 N.am        1 MOL      -0.2380
     13 CA        -30.3922   46.9781   33.7783 C.3         1 MOL       0.1484
     14 C         -31.1979   48.0603   34.3410 C.2         1 MOL       0.2046
     15 O         -32.2892   48.2999   33.8415 O.2         1 MOL      -0.3944
     16 CB        -29.9840   45.8842   34.8191 C.3         1 MOL       0.0400
     17 CG        -28.9535   44.8844   34.3814 C.ar        1 MOL      -0.0004
     18 CD1       -28.1639   44.2368   35.3618 C.ar        1 MOL      -0.0239
     19 CD2       -28.6870   44.5885   33.0194 C.ar        1 MOL      -0.0239
     20 CE1       -27.1304   43.3557   34.9979 C.ar        1 MOL       0.0115
     21 CE2       -27.6243   43.7467   32.6513 C.ar        1 MOL       0.0115
     22 CZ        -26.8523   43.0976   33.6404 C.ar        1 MOL       0.1728
     23 OH        -25.7786   42.2935   33.3493 O.3         1 MOL      -0.2040
     24 P         -26.0654   41.0036   32.5116 P.3         1 MOL       0.1348
     25 O1P       -27.2165   40.2504   32.9282 O.co2       1 MOL      -0.6653
     26 O2P       -24.9202   40.1520   32.6506 O.co2       1 MOL      -0.6653
     27 O3P       -26.1502   41.3205   31.1096 O.co2       1 MOL      -0.6653
     28 N         -30.6651   48.8707   35.2538 N.am        1 MOL      -0.2712
     29 CA        -31.0950   50.1814   35.7131 C.3         1 MOL       0.1461
     30 CH3       -31.2546   51.0706   34.4304 C.3         1 MOL      -0.0287
     31 C         -30.0107   50.7467   36.5554 C.2         1 MOL       0.2294
     32 O         -29.1511   50.0162   37.0383 O.2         1 MOL      -0.3416
     33 CB        -32.4481   50.1609   36.5227 C.3         1 MOL       0.0325
     34 CG        -32.5974   49.0189   37.4730 C.ar        1 MOL      -0.0034
     35 CD1       -33.1827   47.7914   37.0758 C.ar        1 MOL      -0.0242
     36 CD2       -32.1814   49.1574   38.8182 C.ar        1 MOL      -0.0242
     37 CE1       -33.3156   46.7278   37.9899 C.ar        1 MOL       0.0115
     38 CE2       -32.3193   48.0968   39.7315 C.ar        1 MOL       0.0115
     39 CZ        -32.8577   46.8600   39.3178 C.ar        1 MOL       0.1728
     40 OH        -33.0325   45.8293   40.2064 O.3         1 MOL      -0.2040
     41 P         -31.7023   45.2182   40.7400 P.3         1 MOL       0.1348
     42 O1P       -30.8522   46.2240   41.3150 O.co2       1 MOL      -0.6653
     43 O2P       -30.9667   44.4978   39.7279 O.co2       1 MOL      -0.6653
     44 O3P       -32.0240   44.2919   41.7915 O.co2       1 MOL      -0.6653
     45 N         -30.0054   52.0378   36.8825 N.am        1 MOL      -0.2663
     46 CA        -29.0638   52.7424   37.7142 C.3         1 MOL       0.1112
     47 C         -29.5798   54.1176   37.9058 C.2         1 MOL       0.0626
     48 O         -30.9012   54.3161   38.1179 O.co2       1 MOL      -0.5664
     49 CB        -27.5839   52.6689   37.1983 C.3         1 MOL       0.0720
     50 CG        -27.2856   53.5345   36.0677 C.2         1 MOL       0.1774
     51 OD1       -26.8900   54.6776   36.2466 O.2         1 MOL      -0.3971
     52 ND2       -27.4129   53.1278   34.8249 N.am        1 MOL      -0.3007
     53 OXT       -28.7743   55.2051   37.9251 O.co2       1 MOL      -0.5664
     54 H1        -25.2897   46.5138   27.3488 H           1 MOL       0.0566
     55 H2        -27.3163   47.5053   28.2081 H           1 MOL       0.0448
     56 H3        -25.0789   49.4609   31.2089 H           1 MOL       0.0451
     57 H4        -23.1603   46.9845   28.3932 H           1 MOL       0.0459
     58 H5        -28.4342   49.1520   29.6125 H           1 MOL       0.0774
     59 H6        -27.4098   50.2798   30.5002 H           1 MOL       0.0774
     60 H7        -22.7051   49.1152   31.2286 H           1 MOL       0.1718
     61 H8        -21.9636   48.0897   30.1246 H           1 MOL       0.1718
     62 H9        -28.3755   47.4467   33.6542 H           1 MOL       0.1902
     63 H10       -30.9646   46.4518   32.9992 H           1 MOL       0.0839
     64 H11       -30.8756   45.3314   35.1303 H           1 MOL       0.0584
     65 H12       -29.5983   46.3994   35.7050 H           1 MOL       0.0584
     66 H13       -28.3211   44.4233   36.3569 H           1 MOL       0.0703
     67 H14       -29.2413   45.0007   32.2712 H           1 MOL       0.0703
     68 H15       -26.5658   42.9163   35.7267 H           1 MOL       0.0736
     69 H16       -27.4259   43.5996   31.6633 H           1 MOL       0.0736
     70 H17       -29.7905   48.5974   35.5751 H           1 MOL       0.1842
     71 H18       -31.6055   52.0743   34.6755 H           1 MOL       0.0244
     72 H19       -31.9789   50.6421   33.7352 H           1 MOL       0.0244
     73 H20       -30.3022   51.1614   33.9013 H           1 MOL       0.0244
     74 H21       -33.2924   50.1629   35.8276 H           1 MOL       0.0549
     75 H22       -32.5494   51.0937   37.0898 H           1 MOL       0.0549
     76 H23       -33.5170   47.6605   36.1193 H           1 MOL       0.0703
     77 H24       -31.7807   50.0369   39.1477 H           1 MOL       0.0703
     78 H25       -33.7482   45.8509   37.6902 H           1 MOL       0.0736
     79 H26       -32.0220   48.2238   40.6999 H           1 MOL       0.0736
     80 H27       -30.7575   52.5566   36.5615 H           1 MOL       0.1883
     81 H28       -29.0891   52.2732   38.7001 H           1 MOL       0.0754
     82 H29       -27.3463   51.6382   36.9199 H           1 MOL       0.0544
     83 H30       -26.9174   52.9172   38.0319 H           1 MOL       0.0544
     84 H31       -27.2262   53.7388   34.0957 H           1 MOL       0.1814
     85 H32       -27.6966   52.2223   34.6284 H           1 MOL       0.1814
@<TRIPOS>BOND
     1     1     5  ar
     2     2     1  ar
     3     3     2  ar
     4     6     3   1
     5     3     4  ar
     6     4    11  ar
     7    11    10   1
     8    11     5  ar
     9     7     6   1
    10     8     7   1
    11     8     9   2
    12    13    12   1
    13    13    16   1
    14    14    13   1
    15    14    15   2
    16    16    17   1
    17    17    19  ar
    18    17    18  ar
    19    18    20  ar
    20    20    22  ar
    21    22    23   1
    22    21    22  ar
    23    19    21  ar
    24    23    24   1
    25    24    27  ar
    26    24    26  ar
    27    24    25  ar
    28    29    28   1
    29    29    33   1
    30    31    29   1
    31    29    30   1
    32    31    32   2
    33    33    34   1
    34    34    36  ar
    35    34    35  ar
    36    35    37  ar
    37    37    39  ar
    38    39    40   1
    39    38    39  ar
    40    36    38  ar
    41    40    41   1
    42    41    44  ar
    43    41    43  ar
    44    41    42  ar
    45    46    47   1
    46    46    49   1
    47    45    46   1
    48    49    50   1
    49    50    51   2
    50    50    52  am
    51    47    53  ar
    52    47    48  ar
    53    28    14  am
    54    12     8  am
    55    31    45  am
    56     1    54   1
    57     2    55   1
    58     4    56   1
    59     5    57   1
    60     6    58   1
    61     6    59   1
    62    10    60   1
    63    10    61   1
    64    12    62   1
    65    13    63   1
    66    16    64   1
    67    16    65   1
    68    18    66   1
    69    19    67   1
    70    20    68   1
    71    21    69   1
    72    28    70   1
    73    30    71   1
    74    30    72   1
    75    30    73   1
    76    33    74   1
    77    33    75   1
    78    35    76   1
    79    36    77   1
    80    37    78   1
    81    38    79   1
    82    45    80   1
    83    46    81   1
    84    49    82   1
    85    49    83   1
    86    52    84   1
    87    52    85   1
@<TRIPOS>SUBSTRUCTURE
     1  MOL      1

