@<TRIPOS>MOLECULE
1jyq_ligand_011
    85    87
SMALL
GAST_HUCK
****
This file was generated by PARSER (from files_GN.cpp)

@<TRIPOS>ATOM
      1 C1        -28.0102   46.8944   29.7138 C.ar        1 MOL      -0.0801
      2 C2        -28.5940   45.6205   29.6159 C.ar        1 MOL      -0.0711
      3 C3        -28.2555   44.5929   30.5252 C.ar        1 MOL      -0.0250
      4 C4        -27.3081   44.8787   31.5428 C.ar        1 MOL      -0.0414
      5 C6        -27.0676   47.1628   30.7232 C.ar        1 MOL      -0.0516
      6 C12       -28.8971   43.2613   30.3957 C.3         1 MOL       0.1084
      7 O13       -28.4661   42.6511   29.1722 O.3         1 MOL      -0.2508
      8 C16       -28.8236   41.4327   28.6900 C.2         1 MOL       0.3241
      9 O18       -29.7436   40.6584   29.3187 O.2         1 MOL      -0.3773
     10 N11       -25.8097   46.4236   32.6028 N.pl3       1 MOL      -0.3383
     11 C5        -26.7138   46.1556   31.6385 C.ar        1 MOL       0.0282
     12 N         -28.1238   40.9827   27.6235 N.am        1 MOL      -0.2380
     13 CA        -28.2101   39.6707   27.0367 C.3         1 MOL       0.1484
     14 C         -27.4966   38.6929   27.8656 C.2         1 MOL       0.2046
     15 O         -26.6916   37.9205   27.3522 O.2         1 MOL      -0.3944
     16 CB        -27.7742   39.7525   25.5300 C.3         1 MOL       0.0400
     17 CG        -26.5189   40.5262   25.2459 C.ar        1 MOL      -0.0004
     18 CD1       -25.2374   39.9253   25.3032 C.ar        1 MOL      -0.0239
     19 CD2       -26.5944   41.9053   24.9370 C.ar        1 MOL      -0.0239
     20 CE1       -24.0758   40.6752   25.0505 C.ar        1 MOL       0.0115
     21 CE2       -25.4285   42.6621   24.6907 C.ar        1 MOL       0.0115
     22 CZ        -24.1605   42.0456   24.7232 C.ar        1 MOL       0.1728
     23 OH        -23.0139   42.7880   24.5924 O.3         1 MOL      -0.2040
     24 P         -22.5984   43.0943   23.1238 P.3         1 MOL       0.1348
     25 O1P       -22.1595   41.9282   22.3903 O.co2       1 MOL      -0.6653
     26 O2P       -21.5015   44.0331   23.1567 O.co2       1 MOL      -0.6653
     27 O3P       -23.6701   43.7459   22.4054 O.co2       1 MOL      -0.6653
     28 N         -27.7811   38.6087   29.1686 N.am        1 MOL      -0.2712
     29 CA        -27.2010   37.7917   30.2290 C.3         1 MOL       0.1461
     30 CH3       -27.9300   38.3298   31.5134 C.3         1 MOL      -0.0287
     31 C         -25.7338   38.0481   30.3128 C.2         1 MOL       0.2294
     32 O         -25.0396   37.8019   29.3339 O.2         1 MOL      -0.3416
     33 CB        -27.4824   36.2463   29.9817 C.3         1 MOL       0.0325
     34 CG        -28.5037   35.5667   30.8325 C.ar        1 MOL      -0.0034
     35 CD1       -29.8831   35.7989   30.6157 C.ar        1 MOL      -0.0242
     36 CD2       -28.1244   34.7112   31.8957 C.ar        1 MOL      -0.0242
     37 CE1       -30.8520   35.2211   31.4579 C.ar        1 MOL       0.0115
     38 CE2       -29.0938   34.1242   32.7306 C.ar        1 MOL       0.0115
     39 CZ        -30.4645   34.3666   32.5111 C.ar        1 MOL       0.1728
     40 OH        -31.3958   33.8724   33.3888 O.3         1 MOL      -0.2040
     41 P         -32.0104   32.5067   32.9603 P.3         1 MOL       0.1348
     42 O1P       -32.8221   32.6247   31.7717 O.co2       1 MOL      -0.6653
     43 O2P       -32.8848   32.0675   34.0229 O.co2       1 MOL      -0.6653
     44 O3P       -31.0199   31.4736   32.7765 O.co2       1 MOL      -0.6653
     45 N         -25.1176   38.4120   31.4367 N.am        1 MOL      -0.2663
     46 CA        -23.7194   38.6910   31.6287 C.3         1 MOL       0.1112
     47 C         -23.3794   38.4055   33.0375 C.2         1 MOL       0.0626
     48 O         -22.4883   37.4378   33.3472 O.co2       1 MOL      -0.5664
     49 CB        -23.3678   40.1659   31.2371 C.3         1 MOL       0.0720
     50 CG        -22.6937   40.2734   29.9547 C.2         1 MOL       0.1774
     51 OD1       -23.3228   40.1868   28.9084 O.2         1 MOL      -0.3971
     52 ND2       -21.3879   40.4103   29.8859 N.am        1 MOL      -0.3007
     53 OXT       -23.9666   39.0719   34.0601 O.co2       1 MOL      -0.5664
     54 H1        -28.2717   47.6295   29.0538 H           1 MOL       0.0566
     55 H2        -29.2751   45.4440   28.8729 H           1 MOL       0.0448
     56 H3        -27.0444   44.1521   32.2156 H           1 MOL       0.0451
     57 H4        -26.6517   48.0941   30.7878 H           1 MOL       0.0459
     58 H5        -29.9845   43.3737   30.4103 H           1 MOL       0.0774
     59 H6        -28.6139   42.6008   31.2153 H           1 MOL       0.0774
     60 H7        -25.5643   45.7458   33.2490 H           1 MOL       0.1718
     61 H8        -25.4080   47.3043   32.6607 H           1 MOL       0.1718
     62 H9        -27.4082   41.5634   27.3011 H           1 MOL       0.1902
     63 H10       -29.2632   39.3617   27.0198 H           1 MOL       0.0839
     64 H11       -28.5899   40.2127   24.9632 H           1 MOL       0.0584
     65 H12       -27.6718   38.7442   25.1135 H           1 MOL       0.0584
     66 H13       -25.1404   38.9364   25.5379 H           1 MOL       0.0703
     67 H14       -27.4996   42.3799   24.9170 H           1 MOL       0.0703
     68 H15       -23.1560   40.2288   25.1159 H           1 MOL       0.0736
     69 H16       -25.5084   43.6598   24.4964 H           1 MOL       0.0736
     70 H17       -28.4834   39.2301   29.4683 H           1 MOL       0.1842
     71 H18       -27.6472   37.7478   32.3943 H           1 MOL       0.0244
     72 H19       -29.0151   38.2793   31.4125 H           1 MOL       0.0244
     73 H20       -27.6777   39.3810   31.7036 H           1 MOL       0.0244
     74 H21       -26.5472   35.6845   30.0872 H           1 MOL       0.0549
     75 H22       -27.7776   36.0810   28.9465 H           1 MOL       0.0549
     76 H23       -30.1872   36.4115   29.8536 H           1 MOL       0.0703
     77 H24       -27.1366   34.5231   32.0831 H           1 MOL       0.0703
     78 H25       -31.8414   35.4277   31.3043 H           1 MOL       0.0736
     79 H26       -28.7986   33.5263   33.5052 H           1 MOL       0.0736
     80 H27       -25.6742   38.5223   32.2219 H           1 MOL       0.1883
     81 H28       -23.1283   37.9975   31.0196 H           1 MOL       0.0754
     82 H29       -22.7261   40.6220   31.9965 H           1 MOL       0.0544
     83 H30       -24.2747   40.7792   31.2123 H           1 MOL       0.0544
     84 H31       -20.9443   40.4590   29.0218 H           1 MOL       0.1814
     85 H32       -20.8586   40.4496   30.7017 H           1 MOL       0.1814
@<TRIPOS>BOND
     1     1     5  ar
     2     2     1  ar
     3     3     2  ar
     4     6     3   1
     5     3     4  ar
     6     4    11  ar
     7    11    10   1
     8    11     5  ar
     9     7     6   1
    10     8     7   1
    11     8     9   2
    12    13    12   1
    13    13    16   1
    14    14    13   1
    15    14    15   2
    16    16    17   1
    17    17    19  ar
    18    17    18  ar
    19    18    20  ar
    20    20    22  ar
    21    22    23   1
    22    21    22  ar
    23    19    21  ar
    24    23    24   1
    25    24    27  ar
    26    24    26  ar
    27    24    25  ar
    28    29    28   1
    29    29    33   1
    30    31    29   1
    31    29    30   1
    32    31    32   2
    33    33    34   1
    34    34    36  ar
    35    34    35  ar
    36    35    37  ar
    37    37    39  ar
    38    39    40   1
    39    38    39  ar
    40    36    38  ar
    41    40    41   1
    42    41    44  ar
    43    41    43  ar
    44    41    42  ar
    45    46    47   1
    46    46    49   1
    47    45    46   1
    48    49    50   1
    49    50    51   2
    50    50    52  am
    51    47    53  ar
    52    47    48  ar
    53    28    14  am
    54    12     8  am
    55    31    45  am
    56     1    54   1
    57     2    55   1
    58     4    56   1
    59     5    57   1
    60     6    58   1
    61     6    59   1
    62    10    60   1
    63    10    61   1
    64    12    62   1
    65    13    63   1
    66    16    64   1
    67    16    65   1
    68    18    66   1
    69    19    67   1
    70    20    68   1
    71    21    69   1
    72    28    70   1
    73    30    71   1
    74    30    72   1
    75    30    73   1
    76    33    74   1
    77    33    75   1
    78    35    76   1
    79    36    77   1
    80    37    78   1
    81    38    79   1
    82    45    80   1
    83    46    81   1
    84    49    82   1
    85    49    83   1
    86    52    84   1
    87    52    85   1
@<TRIPOS>SUBSTRUCTURE
     1  MOL      1

