@<TRIPOS>MOLECULE
1jyq_ligand_082
    85    87
SMALL
GAST_HUCK
****
This file was generated by PARSER (from files_GN.cpp)

@<TRIPOS>ATOM
      1 C1        -30.9470   52.2984   25.3482 C.ar        1 MOL      -0.0801
      2 C2        -32.0891   52.0936   26.1449 C.ar        1 MOL      -0.0711
      3 C3        -32.0638   52.3600   27.5347 C.ar        1 MOL      -0.0250
      4 C4        -30.8731   52.8856   28.0985 C.ar        1 MOL      -0.0414
      5 C6        -29.7598   52.7756   25.9337 C.ar        1 MOL      -0.0516
      6 C12       -33.2699   52.0947   28.3686 C.3         1 MOL       0.1084
      7 O13       -32.9780   51.9554   29.7656 O.3         1 MOL      -0.2508
      8 C16       -32.1516   51.0465   30.3456 C.2         1 MOL       0.3241
      9 O18       -31.5627   50.0683   29.6179 O.2         1 MOL      -0.3773
     10 N11       -28.5780   53.5220   27.8646 N.pl3       1 MOL      -0.3383
     11 C5        -29.7211   53.0781   27.3085 C.ar        1 MOL       0.0282
     12 N         -31.9047   51.2237   31.6606 N.am        1 MOL      -0.2380
     13 CA        -30.9320   50.5323   32.4704 C.3         1 MOL       0.1484
     14 C         -31.0675   50.8979   33.8868 C.2         1 MOL       0.2046
     15 O         -31.6501   51.9286   34.2012 O.2         1 MOL      -0.3944
     16 CB        -29.4789   50.8248   31.9548 C.3         1 MOL       0.0400
     17 CG        -29.0004   49.9360   30.8559 C.ar        1 MOL      -0.0004
     18 CD1       -28.9799   48.5340   31.0380 C.ar        1 MOL      -0.0239
     19 CD2       -28.5130   50.4612   29.6343 C.ar        1 MOL      -0.0239
     20 CE1       -28.4591   47.6839   30.0473 C.ar        1 MOL       0.0115
     21 CE2       -28.0147   49.6084   28.6278 C.ar        1 MOL       0.0115
     22 CZ        -27.9470   48.2105   28.8460 C.ar        1 MOL       0.1728
     23 OH        -27.4377   47.3147   27.9337 O.3         1 MOL      -0.2040
     24 P         -26.0183   47.6415   27.3887 P.3         1 MOL       0.1348
     25 O1P       -25.5660   46.4998   26.6328 O.co2       1 MOL      -0.6653
     26 O2P       -25.0402   47.9150   28.4163 O.co2       1 MOL      -0.6653
     27 O3P       -26.0787   48.7456   26.4601 O.co2       1 MOL      -0.6653
     28 N         -30.6139   50.0620   34.8230 N.am        1 MOL      -0.2712
     29 CA        -30.8372   50.0525   36.2648 C.3         1 MOL       0.1461
     30 CH3       -32.0585   49.0802   36.4275 C.3         1 MOL      -0.0287
     31 C         -31.1343   51.4119   36.7790 C.2         1 MOL       0.2294
     32 O         -32.2758   51.7358   37.0891 O.2         1 MOL      -0.3416
     33 CB        -29.5952   49.4393   37.0545 C.3         1 MOL       0.0325
     34 CG        -28.4056   49.0622   36.2349 C.ar        1 MOL      -0.0034
     35 CD1       -27.4100   50.0153   35.9124 C.ar        1 MOL      -0.0242
     36 CD2       -28.2548   47.7417   35.7538 C.ar        1 MOL      -0.0242
     37 CE1       -26.3071   49.6620   35.1121 C.ar        1 MOL       0.0115
     38 CE2       -27.1458   47.3850   34.9687 C.ar        1 MOL       0.0115
     39 CZ        -26.1769   48.3491   34.6154 C.ar        1 MOL       0.1728
     40 OH        -25.0787   48.0088   33.8677 O.3         1 MOL      -0.2040
     41 P         -25.3108   48.1417   32.3340 P.3         1 MOL       0.1348
     42 O1P       -24.6477   47.0440   31.6698 O.co2       1 MOL      -0.6653
     43 O2P       -24.7786   49.3673   31.7888 O.co2       1 MOL      -0.6653
     44 O3P       -26.7044   47.9877   31.9729 O.co2       1 MOL      -0.6653
     45 N         -30.1637   52.3183   36.8284 N.am        1 MOL      -0.2663
     46 CA        -30.2793   53.7258   37.0937 C.3         1 MOL       0.1112
     47 C         -28.9076   54.2798   37.0073 C.2         1 MOL       0.0626
     48 O         -28.0390   54.1510   38.0366 O.co2       1 MOL      -0.5664
     49 CB        -30.9794   54.0926   38.4594 C.3         1 MOL       0.0720
     50 CG        -32.2401   54.8145   38.3258 C.2         1 MOL       0.1774
     51 OD1       -32.4311   55.8587   38.9342 O.2         1 MOL      -0.3971
     52 ND2       -33.2233   54.3582   37.5797 N.am        1 MOL      -0.3007
     53 OXT       -28.4444   54.8327   35.8637 O.co2       1 MOL      -0.5664
     54 H1        -30.9755   52.0896   24.3499 H           1 MOL       0.0566
     55 H2        -32.9423   51.7421   25.7025 H           1 MOL       0.0448
     56 H3        -30.8394   53.1162   29.0927 H           1 MOL       0.0451
     57 H4        -28.9281   52.9043   25.3511 H           1 MOL       0.0459
     58 H5        -33.7818   51.1904   28.0313 H           1 MOL       0.0774
     59 H6        -33.9534   52.9355   28.2516 H           1 MOL       0.0774
     60 H7        -28.5427   53.7169   28.8129 H           1 MOL       0.1718
     61 H8        -27.7822   53.6276   27.3211 H           1 MOL       0.1718
     62 H9        -32.4311   51.9134   32.0977 H           1 MOL       0.1902
     63 H10       -31.1468   49.4607   32.4107 H           1 MOL       0.0839
     64 H11       -28.7492   50.7182   32.7627 H           1 MOL       0.0584
     65 H12       -29.4277   51.8769   31.6484 H           1 MOL       0.0584
     66 H13       -29.3184   48.1230   31.9096 H           1 MOL       0.0703
     67 H14       -28.5090   51.4725   29.4742 H           1 MOL       0.0703
     68 H15       -28.4358   46.6748   30.2147 H           1 MOL       0.0736
     69 H16       -27.6648   50.0109   27.7520 H           1 MOL       0.0736
     70 H17       -30.2172   49.2518   34.4680 H           1 MOL       0.1842
     71 H18       -32.3466   48.9964   37.4772 H           1 MOL       0.0244
     72 H19       -31.8097   48.0803   36.0621 H           1 MOL       0.0244
     73 H20       -32.9259   49.4348   35.8660 H           1 MOL       0.0244
     74 H21       -29.9096   48.5572   37.6211 H           1 MOL       0.0549
     75 H22       -29.2341   50.1160   37.8360 H           1 MOL       0.0549
     76 H23       -27.4793   50.9747   36.2553 H           1 MOL       0.0703
     77 H24       -28.9597   47.0314   35.9634 H           1 MOL       0.0703
     78 H25       -25.5949   50.3636   34.8930 H           1 MOL       0.0736
     79 H26       -27.0541   46.4213   34.6442 H           1 MOL       0.0736
     80 H27       -29.2797   52.0056   36.5851 H           1 MOL       0.1883
     81 H28       -30.8555   54.1415   36.2595 H           1 MOL       0.0754
     82 H29       -30.3039   54.6850   39.0873 H           1 MOL       0.0544
     83 H30       -31.1848   53.1842   39.0321 H           1 MOL       0.0544
     84 H31       -34.0566   54.8581   37.5221 H           1 MOL       0.1814
     85 H32       -33.1139   53.5328   37.0759 H           1 MOL       0.1814
@<TRIPOS>BOND
     1     1     5  ar
     2     2     1  ar
     3     3     2  ar
     4     6     3   1
     5     3     4  ar
     6     4    11  ar
     7    11    10   1
     8    11     5  ar
     9     7     6   1
    10     8     7   1
    11     8     9   2
    12    13    12   1
    13    13    16   1
    14    14    13   1
    15    14    15   2
    16    16    17   1
    17    17    19  ar
    18    17    18  ar
    19    18    20  ar
    20    20    22  ar
    21    22    23   1
    22    21    22  ar
    23    19    21  ar
    24    23    24   1
    25    24    27  ar
    26    24    26  ar
    27    24    25  ar
    28    29    28   1
    29    29    33   1
    30    31    29   1
    31    29    30   1
    32    31    32   2
    33    33    34   1
    34    34    36  ar
    35    34    35  ar
    36    35    37  ar
    37    37    39  ar
    38    39    40   1
    39    38    39  ar
    40    36    38  ar
    41    40    41   1
    42    41    44  ar
    43    41    43  ar
    44    41    42  ar
    45    46    47   1
    46    46    49   1
    47    45    46   1
    48    49    50   1
    49    50    51   2
    50    50    52  am
    51    47    53  ar
    52    47    48  ar
    53    28    14  am
    54    12     8  am
    55    31    45  am
    56     1    54   1
    57     2    55   1
    58     4    56   1
    59     5    57   1
    60     6    58   1
    61     6    59   1
    62    10    60   1
    63    10    61   1
    64    12    62   1
    65    13    63   1
    66    16    64   1
    67    16    65   1
    68    18    66   1
    69    19    67   1
    70    20    68   1
    71    21    69   1
    72    28    70   1
    73    30    71   1
    74    30    72   1
    75    30    73   1
    76    33    74   1
    77    33    75   1
    78    35    76   1
    79    36    77   1
    80    37    78   1
    81    38    79   1
    82    45    80   1
    83    46    81   1
    84    49    82   1
    85    49    83   1
    86    52    84   1
    87    52    85   1
@<TRIPOS>SUBSTRUCTURE
     1  MOL      1

