@<TRIPOS>MOLECULE
1jyq_ligand_070
    85    87
SMALL
GAST_HUCK
****
This file was generated by PARSER (from files_GN.cpp)

@<TRIPOS>ATOM
      1 C1        -23.5398   40.3505   25.2523 C.ar        1 MOL      -0.0801
      2 C2        -23.5476   39.4639   26.3454 C.ar        1 MOL      -0.0711
      3 C3        -22.8617   39.7899   27.5388 C.ar        1 MOL      -0.0250
      4 C4        -22.1675   41.0224   27.6063 C.ar        1 MOL      -0.0414
      5 C6        -22.8414   41.5688   25.3292 C.ar        1 MOL      -0.0516
      6 C12       -22.8546   38.8825   28.7096 C.3         1 MOL       0.1084
      7 O13       -23.2105   39.6094   29.8889 O.3         1 MOL      -0.2508
      8 C16       -24.4622   39.9564   30.2847 C.2         1 MOL       0.3241
      9 O18       -25.5675   39.5558   29.6042 O.2         1 MOL      -0.3773
     10 N11       -21.4954   43.0769   26.6143 N.pl3       1 MOL      -0.3383
     11 C5        -22.1561   41.9085   26.5164 C.ar        1 MOL       0.0282
     12 N         -24.5403   40.7686   31.3596 N.am        1 MOL      -0.2380
     13 CA        -25.7177   41.2173   32.0437 C.3         1 MOL       0.1484
     14 C         -26.2939   40.1105   32.7908 C.2         1 MOL       0.2046
     15 O         -25.7323   39.7596   33.8255 O.2         1 MOL      -0.3944
     16 CB        -26.7103   42.0698   31.1833 C.3         1 MOL       0.0400
     17 CG        -28.0290   42.3811   31.8085 C.ar        1 MOL      -0.0004
     18 CD1       -29.1929   42.5391   31.0050 C.ar        1 MOL      -0.0239
     19 CD2       -28.1760   42.5108   33.2174 C.ar        1 MOL      -0.0239
     20 CE1       -30.4445   42.8082   31.5831 C.ar        1 MOL       0.0115
     21 CE2       -29.4328   42.7636   33.7972 C.ar        1 MOL       0.0115
     22 CZ        -30.5803   42.9410   32.9894 C.ar        1 MOL       0.1728
     23 OH        -31.8233   43.0951   33.5402 O.3         1 MOL      -0.2040
     24 P         -32.2331   44.5784   33.7748 P.3         1 MOL       0.1348
     25 O1P       -31.3979   45.2042   34.7742 O.co2       1 MOL      -0.6653
     26 O2P       -33.5755   44.5685   34.2950 O.co2       1 MOL      -0.6653
     27 O3P       -32.2405   45.3724   32.5680 O.co2       1 MOL      -0.6653
     28 N         -27.3691   39.4444   32.3707 N.am        1 MOL      -0.2712
     29 CA        -28.1395   38.4707   33.1323 C.3         1 MOL       0.1461
     30 CH3       -29.1281   39.3015   34.0281 C.3         1 MOL      -0.0287
     31 C         -27.3009   37.5691   33.9481 C.2         1 MOL       0.2294
     32 O         -27.7278   37.1929   35.0382 O.2         1 MOL      -0.3416
     33 CB        -29.0111   37.6136   32.1392 C.3         1 MOL       0.0325
     34 CG        -28.2610   36.8779   31.0792 C.ar        1 MOL      -0.0034
     35 CD1       -27.7364   37.5566   29.9552 C.ar        1 MOL      -0.0242
     36 CD2       -28.0589   35.4798   31.1760 C.ar        1 MOL      -0.0242
     37 CE1       -26.9789   36.8695   28.9855 C.ar        1 MOL       0.0115
     38 CE2       -27.3145   34.7871   30.1969 C.ar        1 MOL       0.0115
     39 CZ        -26.7782   35.4779   29.0895 C.ar        1 MOL       0.1728
     40 OH        -25.9638   34.8381   28.1947 O.3         1 MOL      -0.2040
     41 P         -26.7208   34.1951   26.9945 P.3         1 MOL       0.1348
     42 O1P       -27.4402   33.0032   27.3746 O.co2       1 MOL      -0.6653
     43 O2P       -25.7144   33.7891   26.0438 O.co2       1 MOL      -0.6653
     44 O3P       -27.5977   35.1071   26.3051 O.co2       1 MOL      -0.6653
     45 N         -26.1146   37.1342   33.5312 N.am        1 MOL      -0.2663
     46 CA        -25.1424   36.3996   34.3019 C.3         1 MOL       0.1112
     47 C         -23.8805   37.1846   34.2658 C.2         1 MOL       0.0626
     48 O         -23.8178   38.3399   34.9690 O.co2       1 MOL      -0.5664
     49 CB        -25.0322   34.9068   33.8315 C.3         1 MOL       0.0720
     50 CG        -25.0660   33.9310   34.9150 C.2         1 MOL       0.1774
     51 OD1       -25.7400   32.9120   34.8270 O.2         1 MOL      -0.3971
     52 ND2       -24.3740   34.1233   36.0237 N.am        1 MOL      -0.3007
     53 OXT       -22.8363   36.8907   33.4472 O.co2       1 MOL      -0.5664
     54 H1        -24.0343   40.1039   24.3889 H           1 MOL       0.0566
     55 H2        -24.0644   38.5856   26.2697 H           1 MOL       0.0448
     56 H3        -21.6708   41.2812   28.4661 H           1 MOL       0.0451
     57 H4        -22.8372   42.2065   24.5302 H           1 MOL       0.0459
     58 H5        -21.8422   38.5044   28.8454 H           1 MOL       0.0774
     59 H6        -23.5147   38.0207   28.5793 H           1 MOL       0.0774
     60 H7        -21.0417   43.3048   27.4415 H           1 MOL       0.1718
     61 H8        -21.4619   43.6913   25.8659 H           1 MOL       0.1718
     62 H9        -23.7026   41.0516   31.7596 H           1 MOL       0.1902
     63 H10       -25.3340   41.9228   32.7908 H           1 MOL       0.0839
     64 H11       -26.8728   41.5603   30.2285 H           1 MOL       0.0584
     65 H12       -26.2328   43.0285   30.9612 H           1 MOL       0.0584
     66 H13       -29.1256   42.4663   29.9838 H           1 MOL       0.0703
     67 H14       -27.3687   42.4077   33.8401 H           1 MOL       0.0703
     68 H15       -31.2685   42.9085   30.9848 H           1 MOL       0.0736
     69 H16       -29.5134   42.8231   34.8180 H           1 MOL       0.0736
     70 H17       -27.7461   39.7125   31.5199 H           1 MOL       0.1842
     71 H18       -29.8654   38.6467   34.5144 H           1 MOL       0.0244
     72 H19       -29.6761   40.0381   33.4280 H           1 MOL       0.0244
     73 H20       -28.5886   39.8392   34.8158 H           1 MOL       0.0244
     74 H21       -29.7484   38.2583   31.6488 H           1 MOL       0.0549
     75 H22       -29.5964   36.8881   32.7203 H           1 MOL       0.0549
     76 H23       -27.8863   38.5590   29.8430 H           1 MOL       0.0703
     77 H24       -28.4407   34.9510   31.9674 H           1 MOL       0.0703
     78 H25       -26.5868   37.3808   28.1973 H           1 MOL       0.0736
     79 H26       -27.1602   33.7798   30.2989 H           1 MOL       0.0736
     80 H27       -25.8536   37.3838   32.6275 H           1 MOL       0.1883
     81 H28       -25.4510   36.4103   35.3553 H           1 MOL       0.0754
     82 H29       -24.1000   34.7415   33.2784 H           1 MOL       0.0544
     83 H30       -25.8518   34.6791   33.1346 H           1 MOL       0.0544
     84 H31       -24.4114   33.4559   36.7395 H           1 MOL       0.1814
     85 H32       -23.8649   34.9446   36.1486 H           1 MOL       0.1814
@<TRIPOS>BOND
     1     1     5  ar
     2     2     1  ar
     3     3     2  ar
     4     6     3   1
     5     3     4  ar
     6     4    11  ar
     7    11    10   1
     8    11     5  ar
     9     7     6   1
    10     8     7   1
    11     8     9   2
    12    13    12   1
    13    13    16   1
    14    14    13   1
    15    14    15   2
    16    16    17   1
    17    17    19  ar
    18    17    18  ar
    19    18    20  ar
    20    20    22  ar
    21    22    23   1
    22    21    22  ar
    23    19    21  ar
    24    23    24   1
    25    24    27  ar
    26    24    26  ar
    27    24    25  ar
    28    29    28   1
    29    29    33   1
    30    31    29   1
    31    29    30   1
    32    31    32   2
    33    33    34   1
    34    34    36  ar
    35    34    35  ar
    36    35    37  ar
    37    37    39  ar
    38    39    40   1
    39    38    39  ar
    40    36    38  ar
    41    40    41   1
    42    41    44  ar
    43    41    43  ar
    44    41    42  ar
    45    46    47   1
    46    46    49   1
    47    45    46   1
    48    49    50   1
    49    50    51   2
    50    50    52  am
    51    47    53  ar
    52    47    48  ar
    53    28    14  am
    54    12     8  am
    55    31    45  am
    56     1    54   1
    57     2    55   1
    58     4    56   1
    59     5    57   1
    60     6    58   1
    61     6    59   1
    62    10    60   1
    63    10    61   1
    64    12    62   1
    65    13    63   1
    66    16    64   1
    67    16    65   1
    68    18    66   1
    69    19    67   1
    70    20    68   1
    71    21    69   1
    72    28    70   1
    73    30    71   1
    74    30    72   1
    75    30    73   1
    76    33    74   1
    77    33    75   1
    78    35    76   1
    79    36    77   1
    80    37    78   1
    81    38    79   1
    82    45    80   1
    83    46    81   1
    84    49    82   1
    85    49    83   1
    86    52    84   1
    87    52    85   1
@<TRIPOS>SUBSTRUCTURE
     1  MOL      1

