@<TRIPOS>MOLECULE
1jyq_ligand_062
    85    87
SMALL
GAST_HUCK
****
This file was generated by PARSER (from files_GN.cpp)

@<TRIPOS>ATOM
      1 C1        -31.4284   43.9422   39.0645 C.ar        1 MOL      -0.0801
      2 C2        -31.9184   44.6775   40.1592 C.ar        1 MOL      -0.0711
      3 C3        -31.0328   45.2332   41.1099 C.ar        1 MOL      -0.0250
      4 C4        -29.6394   45.0432   40.9331 C.ar        1 MOL      -0.0414
      5 C6        -30.0457   43.7522   38.9049 C.ar        1 MOL      -0.0516
      6 C12       -31.5571   45.9894   42.2790 C.3         1 MOL       0.1084
      7 O13       -31.1220   47.3563   42.2462 O.3         1 MOL      -0.2508
      8 C16       -31.8453   48.4756   41.9826 C.2         1 MOL       0.3241
      9 O18       -33.1431   48.4029   41.6071 O.2         1 MOL      -0.3773
     10 N11       -27.8234   44.1075   39.6719 N.pl3       1 MOL      -0.3383
     11 C5        -29.1448   44.3043   39.8342 C.ar        1 MOL       0.0282
     12 N         -31.1950   49.6552   42.0586 N.am        1 MOL      -0.2380
     13 CA        -31.7022   50.9394   41.6443 C.3         1 MOL       0.1484
     14 C         -31.7596   51.0751   40.1801 C.2         1 MOL       0.2046
     15 O         -32.4751   51.9503   39.7158 O.2         1 MOL      -0.3944
     16 CB        -30.8120   52.0259   42.3309 C.3         1 MOL       0.0400
     17 CG        -31.0941   53.4239   41.8984 C.ar        1 MOL      -0.0004
     18 CD1       -32.2067   54.1292   42.4149 C.ar        1 MOL      -0.0239
     19 CD2       -30.3022   54.0382   40.8969 C.ar        1 MOL      -0.0239
     20 CE1       -32.5472   55.3959   41.9077 C.ar        1 MOL       0.0115
     21 CE2       -30.6496   55.3030   40.3865 C.ar        1 MOL       0.0115
     22 CZ        -31.8010   55.9694   40.8572 C.ar        1 MOL       0.1728
     23 OH        -32.1433   57.1835   40.3238 O.3         1 MOL      -0.2040
     24 P         -33.3379   57.1015   39.3332 P.3         1 MOL       0.1348
     25 O1P       -33.5230   58.4163   38.7701 O.co2       1 MOL      -0.6653
     26 O2P       -34.5761   56.7848   40.0071 O.co2       1 MOL      -0.6653
     27 O3P       -33.1419   56.1821   38.2358 O.co2       1 MOL      -0.6653
     28 N         -31.1105   50.2450   39.3658 N.am        1 MOL      -0.2712
     29 CA        -31.1107   50.2288   37.9132 C.3         1 MOL       0.1461
     30 CH3       -30.3287   48.9384   37.5002 C.3         1 MOL      -0.0287
     31 C         -30.3548   51.3737   37.3586 C.2         1 MOL       0.2294
     32 O         -30.6744   51.8224   36.2668 O.2         1 MOL      -0.3416
     33 CB        -32.5933   50.1774   37.3604 C.3         1 MOL       0.0325
     34 CG        -33.5597   49.3089   38.1035 C.ar        1 MOL      -0.0034
     35 CD1       -34.5380   49.8845   38.9461 C.ar        1 MOL      -0.0242
     36 CD2       -33.5414   47.9028   37.9727 C.ar        1 MOL      -0.0242
     37 CE1       -35.4532   49.0868   39.6547 C.ar        1 MOL       0.0115
     38 CE2       -34.4632   47.0977   38.6731 C.ar        1 MOL       0.0115
     39 CZ        -35.4149   47.6842   39.5325 C.ar        1 MOL       0.1728
     40 OH        -36.3635   46.9130   40.1610 O.3         1 MOL      -0.2040
     41 P         -35.9823   46.4830   41.6092 P.3         1 MOL       0.1348
     42 O1P       -35.5358   47.5915   42.4150 O.co2       1 MOL      -0.6653
     43 O2P       -34.9643   45.4643   41.6054 O.co2       1 MOL      -0.6653
     44 O3P       -37.1490   45.9230   42.2434 O.co2       1 MOL      -0.6653
     45 N         -29.2595   51.8350   37.9705 N.am        1 MOL      -0.2663
     46 CA        -28.3794   52.9046   37.5727 C.3         1 MOL       0.1112
     47 C         -29.0770   54.2076   37.4393 C.2         1 MOL       0.0626
     48 O         -28.3826   55.3678   37.4656 O.co2       1 MOL      -0.5664
     49 CB        -27.5444   52.5193   36.3105 C.3         1 MOL       0.0720
     50 CG        -26.2327   53.1442   36.2490 C.2         1 MOL       0.1774
     51 OD1       -25.4036   52.9151   37.1173 O.2         1 MOL      -0.3971
     52 ND2       -25.8773   53.9223   35.2506 N.am        1 MOL      -0.3007
     53 OXT       -30.4258   54.2914   37.4233 O.co2       1 MOL      -0.5664
     54 H1        -32.0814   43.5331   38.3924 H           1 MOL       0.0566
     55 H2        -32.9285   44.7934   40.2583 H           1 MOL       0.0448
     56 H3        -28.9802   45.4335   41.6132 H           1 MOL       0.0451
     57 H4        -29.7016   43.2058   38.1125 H           1 MOL       0.0459
     58 H5        -31.1757   45.5392   43.1970 H           1 MOL       0.0774
     59 H6        -32.6448   45.9475   42.3273 H           1 MOL       0.0774
     60 H7        -27.1893   44.4735   40.3082 H           1 MOL       0.1718
     61 H8        -27.5043   43.5841   38.9187 H           1 MOL       0.1718
     62 H9        -30.2664   49.6200   42.3486 H           1 MOL       0.1902
     63 H10       -32.7227   51.0503   42.0305 H           1 MOL       0.0839
     64 H11       -29.7554   51.7857   42.1488 H           1 MOL       0.0584
     65 H12       -30.9582   51.9754   43.4181 H           1 MOL       0.0584
     66 H13       -32.7912   53.7120   43.1463 H           1 MOL       0.0703
     67 H14       -29.4960   53.5491   40.4982 H           1 MOL       0.0703
     68 H15       -33.3630   55.8890   42.2808 H           1 MOL       0.0736
     69 H16       -30.0935   55.7119   39.6330 H           1 MOL       0.0736
     70 H17       -30.5614   49.5623   39.7892 H           1 MOL       0.1842
     71 H18       -30.3540   48.7979   36.4172 H           1 MOL       0.0244
     72 H19       -30.7621   48.0505   37.9695 H           1 MOL       0.0244
     73 H20       -29.2773   48.9936   37.8089 H           1 MOL       0.0244
     74 H21       -32.5894   49.8632   36.3131 H           1 MOL       0.0549
     75 H22       -32.9869   51.1977   37.3464 H           1 MOL       0.0549
     76 H23       -34.5979   50.8970   39.0518 H           1 MOL       0.0703
     77 H24       -32.8760   47.4487   37.3431 H           1 MOL       0.0703
     78 H25       -36.1514   49.5314   40.2510 H           1 MOL       0.0736
     79 H26       -34.4447   46.0815   38.5450 H           1 MOL       0.0736
     80 H27       -29.0190   51.3970   38.8019 H           1 MOL       0.1883
     81 H28       -27.6909   53.0166   38.4151 H           1 MOL       0.0754
     82 H29       -28.1196   52.7628   35.4118 H           1 MOL       0.0544
     83 H30       -27.3842   51.4352   36.3007 H           1 MOL       0.0544
     84 H31       -24.9761   54.2875   35.2141 H           1 MOL       0.1814
     85 H32       -26.5039   54.1200   34.5348 H           1 MOL       0.1814
@<TRIPOS>BOND
     1     1     5  ar
     2     2     1  ar
     3     3     2  ar
     4     6     3   1
     5     3     4  ar
     6     4    11  ar
     7    11    10   1
     8    11     5  ar
     9     7     6   1
    10     8     7   1
    11     8     9   2
    12    13    12   1
    13    13    16   1
    14    14    13   1
    15    14    15   2
    16    16    17   1
    17    17    19  ar
    18    17    18  ar
    19    18    20  ar
    20    20    22  ar
    21    22    23   1
    22    21    22  ar
    23    19    21  ar
    24    23    24   1
    25    24    27  ar
    26    24    26  ar
    27    24    25  ar
    28    29    28   1
    29    29    33   1
    30    31    29   1
    31    29    30   1
    32    31    32   2
    33    33    34   1
    34    34    36  ar
    35    34    35  ar
    36    35    37  ar
    37    37    39  ar
    38    39    40   1
    39    38    39  ar
    40    36    38  ar
    41    40    41   1
    42    41    44  ar
    43    41    43  ar
    44    41    42  ar
    45    46    47   1
    46    46    49   1
    47    45    46   1
    48    49    50   1
    49    50    51   2
    50    50    52  am
    51    47    53  ar
    52    47    48  ar
    53    28    14  am
    54    12     8  am
    55    31    45  am
    56     1    54   1
    57     2    55   1
    58     4    56   1
    59     5    57   1
    60     6    58   1
    61     6    59   1
    62    10    60   1
    63    10    61   1
    64    12    62   1
    65    13    63   1
    66    16    64   1
    67    16    65   1
    68    18    66   1
    69    19    67   1
    70    20    68   1
    71    21    69   1
    72    28    70   1
    73    30    71   1
    74    30    72   1
    75    30    73   1
    76    33    74   1
    77    33    75   1
    78    35    76   1
    79    36    77   1
    80    37    78   1
    81    38    79   1
    82    45    80   1
    83    46    81   1
    84    49    82   1
    85    49    83   1
    86    52    84   1
    87    52    85   1
@<TRIPOS>SUBSTRUCTURE
     1  MOL      1

