@<TRIPOS>MOLECULE
1jyq_ligand_053
    85    87
SMALL
GAST_HUCK
****
This file was generated by PARSER (from files_GN.cpp)

@<TRIPOS>ATOM
      1 C1        -32.2187   43.7138   33.2379 C.ar        1 MOL      -0.0801
      2 C2        -31.0010   44.0371   33.8593 C.ar        1 MOL      -0.0711
      3 C3        -30.4977   43.2514   34.9254 C.ar        1 MOL      -0.0250
      4 C4        -31.2410   42.1188   35.3366 C.ar        1 MOL      -0.0414
      5 C6        -32.9552   42.5980   33.6692 C.ar        1 MOL      -0.0516
      6 C12       -29.2309   43.5850   35.6304 C.3         1 MOL       0.1084
      7 O13       -28.8427   44.9412   35.4010 O.3         1 MOL      -0.2508
      8 C16       -27.9004   45.6648   36.0535 C.2         1 MOL       0.3241
      9 O18       -27.2011   45.1408   37.0873 O.2         1 MOL      -0.3773
     10 N11       -33.1713   40.7285   35.1351 N.pl3       1 MOL      -0.3383
     11 C5        -32.4673   41.7971   34.7192 C.ar        1 MOL       0.0282
     12 N         -27.7802   46.9489   35.6593 N.am        1 MOL      -0.2380
     13 CA        -26.9961   47.9806   36.2770 C.3         1 MOL       0.1484
     14 C         -27.8221   48.8513   37.1251 C.2         1 MOL       0.2046
     15 O         -27.2379   49.5954   37.9000 O.2         1 MOL      -0.3944
     16 CB        -26.1774   48.7795   35.2025 C.3         1 MOL       0.0400
     17 CG        -26.8650   49.1749   33.9275 C.ar        1 MOL      -0.0004
     18 CD1       -28.2171   49.5883   33.9100 C.ar        1 MOL      -0.0239
     19 CD2       -26.1650   49.1619   32.6981 C.ar        1 MOL      -0.0239
     20 CE1       -28.8764   49.8795   32.7015 C.ar        1 MOL       0.0115
     21 CE2       -26.8093   49.5002   31.4938 C.ar        1 MOL       0.0115
     22 CZ        -28.1722   49.8540   31.4792 C.ar        1 MOL       0.1728
     23 OH        -28.7887   50.0209   30.2614 O.3         1 MOL      -0.2040
     24 P         -29.6477   51.2958   30.0235 P.3         1 MOL       0.1348
     25 O1P       -30.9256   50.8568   29.5165 O.co2       1 MOL      -0.6653
     26 O2P       -29.0833   52.1548   28.9982 O.co2       1 MOL      -0.6653
     27 O3P       -29.9269   52.1065   31.1866 O.co2       1 MOL      -0.6653
     28 N         -29.1580   48.8426   37.0652 N.am        1 MOL      -0.2712
     29 CA        -30.1661   49.6677   37.7158 C.3         1 MOL       0.1461
     30 CH3       -31.1526   50.1258   36.5823 C.3         1 MOL      -0.0287
     31 C         -29.6081   50.8873   38.3480 C.2         1 MOL       0.2294
     32 O         -29.7262   51.0861   39.5541 O.2         1 MOL      -0.3416
     33 CB        -30.9477   48.7663   38.7471 C.3         1 MOL       0.0325
     34 CG        -31.7250   47.6188   38.1937 C.ar        1 MOL      -0.0034
     35 CD1       -31.1145   46.3631   37.9689 C.ar        1 MOL      -0.0242
     36 CD2       -33.0986   47.7651   37.8834 C.ar        1 MOL      -0.0242
     37 CE1       -31.8549   45.2880   37.4473 C.ar        1 MOL       0.0115
     38 CE2       -33.8343   46.6965   37.3388 C.ar        1 MOL       0.0115
     39 CZ        -33.2211   45.4424   37.1347 C.ar        1 MOL       0.1728
     40 OH        -33.9120   44.4164   36.5437 O.3         1 MOL      -0.2040
     41 P         -34.6605   43.4929   37.5507 P.3         1 MOL       0.1348
     42 O1P       -33.7641   42.8464   38.4796 O.co2       1 MOL      -0.6653
     43 O2P       -35.3080   42.4500   36.7898 O.co2       1 MOL      -0.6653
     44 O3P       -35.6935   44.1924   38.2745 O.co2       1 MOL      -0.6653
     45 N         -28.9278   51.7672   37.6152 N.am        1 MOL      -0.2663
     46 CA        -28.2273   52.9391   38.0683 C.3         1 MOL       0.1112
     47 C         -29.1025   54.1400   38.0390 C.2         1 MOL       0.0626
     48 O         -30.4505   54.0327   37.9553 O.co2       1 MOL      -0.5664
     49 CB        -26.9380   53.0978   37.2037 C.3         1 MOL       0.0720
     50 CG        -27.1503   53.7956   35.9490 C.2         1 MOL       0.1774
     51 OD1       -27.2550   55.0158   35.9330 O.2         1 MOL      -0.3971
     52 ND2       -27.3070   53.1470   34.8171 N.am        1 MOL      -0.3007
     53 OXT       -28.5622   55.3680   37.8692 O.co2       1 MOL      -0.5664
     54 H1        -32.5695   44.2900   32.4711 H           1 MOL       0.0566
     55 H2        -30.4858   44.8527   33.5233 H           1 MOL       0.0448
     56 H3        -30.8961   41.5321   36.1024 H           1 MOL       0.0451
     57 H4        -33.8428   42.3715   33.2142 H           1 MOL       0.0459
     58 H5        -28.4367   42.9137   35.2947 H           1 MOL       0.0774
     59 H6        -29.3666   43.4478   36.7072 H           1 MOL       0.0774
     60 H7        -32.8376   40.1762   35.8615 H           1 MOL       0.1718
     61 H8        -34.0179   40.5076   34.7124 H           1 MOL       0.1718
     62 H9        -28.3462   47.2187   34.9234 H           1 MOL       0.1902
     63 H10       -26.2654   47.5114   36.9558 H           1 MOL       0.0839
     64 H11       -25.3104   48.1579   34.9549 H           1 MOL       0.0584
     65 H12       -25.7703   49.6882   35.6516 H           1 MOL       0.0584
     66 H13       -28.7521   49.6619   34.7674 H           1 MOL       0.0703
     67 H14       -25.1770   48.8981   32.6712 H           1 MOL       0.0703
     68 H15       -29.8686   50.1076   32.7182 H           1 MOL       0.0736
     69 H16       -26.2810   49.4626   30.6135 H           1 MOL       0.0736
     70 H17       -29.5379   48.1744   36.4753 H           1 MOL       0.1842
     71 H18       -31.9920   50.6864   37.0003 H           1 MOL       0.0244
     72 H19       -31.5554   49.2671   36.0389 H           1 MOL       0.0244
     73 H20       -30.6599   50.7595   35.8415 H           1 MOL       0.0244
     74 H21       -31.6312   49.4033   39.3138 H           1 MOL       0.0549
     75 H22       -30.2348   48.3793   39.4779 H           1 MOL       0.0549
     76 H23       -30.1271   46.2227   38.1859 H           1 MOL       0.0703
     77 H24       -33.5707   48.6589   38.0297 H           1 MOL       0.0703
     78 H25       -31.4027   44.3864   37.2977 H           1 MOL       0.0736
     79 H26       -34.8164   46.8294   37.0929 H           1 MOL       0.0736
     80 H27       -28.8626   51.5888   36.6658 H           1 MOL       0.1883
     81 H28       -27.9004   52.8031   39.1016 H           1 MOL       0.0754
     82 H29       -26.5098   52.1032   37.0154 H           1 MOL       0.0544
     83 H30       -26.1862   53.6369   37.7785 H           1 MOL       0.0544
     84 H31       -27.5019   53.6472   34.0043 H           1 MOL       0.1814
     85 H32       -27.2348   52.1735   34.7906 H           1 MOL       0.1814
@<TRIPOS>BOND
     1     1     5  ar
     2     2     1  ar
     3     3     2  ar
     4     6     3   1
     5     3     4  ar
     6     4    11  ar
     7    11    10   1
     8    11     5  ar
     9     7     6   1
    10     8     7   1
    11     8     9   2
    12    13    12   1
    13    13    16   1
    14    14    13   1
    15    14    15   2
    16    16    17   1
    17    17    19  ar
    18    17    18  ar
    19    18    20  ar
    20    20    22  ar
    21    22    23   1
    22    21    22  ar
    23    19    21  ar
    24    23    24   1
    25    24    27  ar
    26    24    26  ar
    27    24    25  ar
    28    29    28   1
    29    29    33   1
    30    31    29   1
    31    29    30   1
    32    31    32   2
    33    33    34   1
    34    34    36  ar
    35    34    35  ar
    36    35    37  ar
    37    37    39  ar
    38    39    40   1
    39    38    39  ar
    40    36    38  ar
    41    40    41   1
    42    41    44  ar
    43    41    43  ar
    44    41    42  ar
    45    46    47   1
    46    46    49   1
    47    45    46   1
    48    49    50   1
    49    50    51   2
    50    50    52  am
    51    47    53  ar
    52    47    48  ar
    53    28    14  am
    54    12     8  am
    55    31    45  am
    56     1    54   1
    57     2    55   1
    58     4    56   1
    59     5    57   1
    60     6    58   1
    61     6    59   1
    62    10    60   1
    63    10    61   1
    64    12    62   1
    65    13    63   1
    66    16    64   1
    67    16    65   1
    68    18    66   1
    69    19    67   1
    70    20    68   1
    71    21    69   1
    72    28    70   1
    73    30    71   1
    74    30    72   1
    75    30    73   1
    76    33    74   1
    77    33    75   1
    78    35    76   1
    79    36    77   1
    80    37    78   1
    81    38    79   1
    82    45    80   1
    83    46    81   1
    84    49    82   1
    85    49    83   1
    86    52    84   1
    87    52    85   1
@<TRIPOS>SUBSTRUCTURE
     1  MOL      1

