@<TRIPOS>MOLECULE
1jyq_ligand_007
    85    87
SMALL
GAST_HUCK
****
This file was generated by PARSER (from files_GN.cpp)

@<TRIPOS>ATOM
      1 C1        -24.0960   38.9901   30.2138 C.ar        1 MOL      -0.0801
      2 C2        -23.9774   39.7257   31.4060 C.ar        1 MOL      -0.0711
      3 C3        -22.9861   40.7247   31.5362 C.ar        1 MOL      -0.0250
      4 C4        -22.0940   40.9487   30.4612 C.ar        1 MOL      -0.0414
      5 C6        -23.2208   39.2321   29.1414 C.ar        1 MOL      -0.0516
      6 C12       -22.9099   41.5524   32.7689 C.3         1 MOL       0.1084
      7 O13       -23.8412   42.6412   32.7592 O.3         1 MOL      -0.2508
      8 C16       -25.1975   42.5858   32.7018 C.2         1 MOL       0.3241
      9 O18       -25.8383   41.3917   32.6597 O.2         1 MOL      -0.3773
     10 N11       -21.3487   40.4166   28.2569 N.pl3       1 MOL      -0.3383
     11 C5        -22.2112   40.2059   29.2679 C.ar        1 MOL       0.0282
     12 N         -25.8730   43.7619   32.7420 N.am        1 MOL      -0.2380
     13 CA        -27.3056   43.8792   32.6942 C.3         1 MOL       0.1484
     14 C         -27.6356   45.2588   32.3619 C.2         1 MOL       0.2046
     15 O         -28.4075   45.4697   31.4334 O.2         1 MOL      -0.3944
     16 CB        -27.9822   43.4209   34.0352 C.3         1 MOL       0.0400
     17 CG        -29.4705   43.4168   33.9753 C.ar        1 MOL      -0.0004
     18 CD1       -30.2369   44.3541   34.7051 C.ar        1 MOL      -0.0239
     19 CD2       -30.1456   42.4569   33.1853 C.ar        1 MOL      -0.0239
     20 CE1       -31.6402   44.3501   34.6210 C.ar        1 MOL       0.0115
     21 CE2       -31.5480   42.4549   33.1022 C.ar        1 MOL       0.0115
     22 CZ        -32.3045   43.4235   33.7912 C.ar        1 MOL       0.1728
     23 OH        -33.6738   43.4087   33.7051 O.3         1 MOL      -0.2040
     24 P         -34.2306   44.3343   32.5773 P.3         1 MOL       0.1348
     25 O1P       -33.9644   45.7271   32.8442 O.co2       1 MOL      -0.6653
     26 O2P       -35.6623   44.1751   32.5522 O.co2       1 MOL      -0.6653
     27 O3P       -33.7381   43.9814   31.2683 O.co2       1 MOL      -0.6653
     28 N         -27.1269   46.2349   33.1095 N.am        1 MOL      -0.2712
     29 CA        -27.3645   47.6612   33.1207 C.3         1 MOL       0.1461
     30 CH3       -28.8708   47.9857   32.8248 C.3         1 MOL      -0.0287
     31 C         -26.4673   48.2751   32.1142 C.2         1 MOL       0.2294
     32 O         -25.4680   48.8836   32.4654 O.2         1 MOL      -0.3416
     33 CB        -27.0446   48.1095   34.6142 C.3         1 MOL       0.0325
     34 CG        -27.5724   49.4281   35.1068 C.ar        1 MOL      -0.0034
     35 CD1       -27.3807   50.6292   34.3852 C.ar        1 MOL      -0.0242
     36 CD2       -28.3185   49.4973   36.3102 C.ar        1 MOL      -0.0242
     37 CE1       -27.9578   51.8372   34.8075 C.ar        1 MOL       0.0115
     38 CE2       -28.8706   50.7095   36.7591 C.ar        1 MOL       0.0115
     39 CZ        -28.6904   51.8917   36.0138 C.ar        1 MOL       0.1728
     40 OH        -29.3306   53.0266   36.4410 O.3         1 MOL      -0.2040
     41 P         -28.3915   54.1213   37.0220 P.3         1 MOL       0.1348
     42 O1P       -29.2198   55.0035   37.8010 O.co2       1 MOL      -0.6653
     43 O2P       -27.8789   54.9414   35.9482 O.co2       1 MOL      -0.6653
     44 O3P       -27.3140   53.6443   37.8580 O.co2       1 MOL      -0.6653
     45 N         -26.6961   48.1482   30.8150 N.am        1 MOL      -0.2663
     46 CA        -26.0149   48.7954   29.7214 C.3         1 MOL       0.1112
     47 C         -26.7177   48.3964   28.4779 C.2         1 MOL       0.0626
     48 O         -27.0381   49.3115   27.5257 O.co2       1 MOL      -0.5664
     49 CB        -24.4831   48.4893   29.5807 C.3         1 MOL       0.0720
     50 CG        -23.6022   49.1973   30.4940 C.2         1 MOL       0.1774
     51 OD1       -23.8044   50.3675   30.7937 O.2         1 MOL      -0.3971
     52 ND2       -22.4655   48.6691   30.8968 N.am        1 MOL      -0.3007
     53 OXT       -26.9925   47.0954   28.2094 O.co2       1 MOL      -0.5664
     54 H1        -24.8365   38.2907   30.1191 H           1 MOL       0.0566
     55 H2        -24.6189   39.5308   32.1791 H           1 MOL       0.0448
     56 H3        -21.3582   41.6583   30.5397 H           1 MOL       0.0451
     57 H4        -23.3189   38.6951   28.2750 H           1 MOL       0.0459
     58 H5        -21.9254   42.0059   32.8505 H           1 MOL       0.0774
     59 H6        -23.0599   40.9463   33.6665 H           1 MOL       0.0774
     60 H7        -20.6373   41.0692   28.3534 H           1 MOL       0.1718
     61 H8        -21.4214   39.9025   27.4374 H           1 MOL       0.1718
     62 H9        -25.3400   44.5811   32.7448 H           1 MOL       0.1902
     63 H10       -27.6483   43.2178   31.8861 H           1 MOL       0.0839
     64 H11       -27.6230   44.0459   34.8605 H           1 MOL       0.0584
     65 H12       -27.6605   42.4093   34.2903 H           1 MOL       0.0584
     66 H13       -29.7802   45.0542   35.2918 H           1 MOL       0.0703
     67 H14       -29.6195   41.7529   32.6647 H           1 MOL       0.0703
     68 H15       -32.1830   45.0326   35.1531 H           1 MOL       0.0736
     69 H16       -32.0215   41.7534   32.5266 H           1 MOL       0.0736
     70 H17       -26.5156   45.9180   33.7961 H           1 MOL       0.1842
     71 H18       -29.0432   49.0601   32.8669 H           1 MOL       0.0244
     72 H19       -29.5216   47.4993   33.5541 H           1 MOL       0.0244
     73 H20       -29.1752   47.6589   31.8352 H           1 MOL       0.0244
     74 H21       -25.9636   48.1085   34.7905 H           1 MOL       0.0549
     75 H22       -27.4293   47.3315   35.2871 H           1 MOL       0.0549
     76 H23       -26.8446   50.6480   33.5278 H           1 MOL       0.0703
     77 H24       -28.4797   48.6591   36.8737 H           1 MOL       0.0703
     78 H25       -27.8462   52.6869   34.2511 H           1 MOL       0.0736
     79 H26       -29.4121   50.7279   37.6309 H           1 MOL       0.0736
     80 H27       -27.4690   47.6185   30.5643 H           1 MOL       0.1883
     81 H28       -26.1575   49.8738   29.8222 H           1 MOL       0.0754
     82 H29       -24.1448   48.7644   28.5766 H           1 MOL       0.0544
     83 H30       -24.3384   47.4121   29.6834 H           1 MOL       0.0544
     84 H31       -21.8523   49.1945   31.4370 H           1 MOL       0.1814
     85 H32       -22.2157   47.7708   30.6239 H           1 MOL       0.1814
@<TRIPOS>BOND
     1     1     5  ar
     2     2     1  ar
     3     3     2  ar
     4     6     3   1
     5     3     4  ar
     6     4    11  ar
     7    11    10   1
     8    11     5  ar
     9     7     6   1
    10     8     7   1
    11     8     9   2
    12    13    12   1
    13    13    16   1
    14    14    13   1
    15    14    15   2
    16    16    17   1
    17    17    19  ar
    18    17    18  ar
    19    18    20  ar
    20    20    22  ar
    21    22    23   1
    22    21    22  ar
    23    19    21  ar
    24    23    24   1
    25    24    27  ar
    26    24    26  ar
    27    24    25  ar
    28    29    28   1
    29    29    33   1
    30    31    29   1
    31    29    30   1
    32    31    32   2
    33    33    34   1
    34    34    36  ar
    35    34    35  ar
    36    35    37  ar
    37    37    39  ar
    38    39    40   1
    39    38    39  ar
    40    36    38  ar
    41    40    41   1
    42    41    44  ar
    43    41    43  ar
    44    41    42  ar
    45    46    47   1
    46    46    49   1
    47    45    46   1
    48    49    50   1
    49    50    51   2
    50    50    52  am
    51    47    53  ar
    52    47    48  ar
    53    28    14  am
    54    12     8  am
    55    31    45  am
    56     1    54   1
    57     2    55   1
    58     4    56   1
    59     5    57   1
    60     6    58   1
    61     6    59   1
    62    10    60   1
    63    10    61   1
    64    12    62   1
    65    13    63   1
    66    16    64   1
    67    16    65   1
    68    18    66   1
    69    19    67   1
    70    20    68   1
    71    21    69   1
    72    28    70   1
    73    30    71   1
    74    30    72   1
    75    30    73   1
    76    33    74   1
    77    33    75   1
    78    35    76   1
    79    36    77   1
    80    37    78   1
    81    38    79   1
    82    45    80   1
    83    46    81   1
    84    49    82   1
    85    49    83   1
    86    52    84   1
    87    52    85   1
@<TRIPOS>SUBSTRUCTURE
     1  MOL      1

