@<TRIPOS>MOLECULE
1jyq_ligand_018
    85    87
SMALL
GAST_HUCK
****
This file was generated by PARSER (from files_GN.cpp)

@<TRIPOS>ATOM
      1 C1        -30.7321   42.2426   42.1041 C.ar        1 MOL      -0.0801
      2 C2        -29.4476   42.5030   41.5903 C.ar        1 MOL      -0.0711
      3 C3        -29.1587   42.2893   40.2200 C.ar        1 MOL      -0.0250
      4 C4        -30.1888   41.8004   39.3846 C.ar        1 MOL      -0.0414
      5 C6        -31.7472   41.7596   41.2597 C.ar        1 MOL      -0.0516
      6 C12       -27.8136   42.5940   39.6713 C.3         1 MOL       0.1084
      7 O13       -27.8359   43.8304   38.9503 O.3         1 MOL      -0.2508
      8 C16       -28.1532   44.0473   37.6487 C.2         1 MOL       0.3241
      9 O18       -28.4626   43.0323   36.8018 O.2         1 MOL      -0.3773
     10 N11       -32.4438   41.0896   39.0750 N.pl3       1 MOL      -0.3383
     11 C5        -31.4771   41.5365   39.8934 C.ar        1 MOL       0.0282
     12 N         -28.2639   45.3440   37.2765 N.am        1 MOL      -0.2380
     13 CA        -28.9166   45.8223   36.0828 C.3         1 MOL       0.1484
     14 C         -28.4821   47.1565   35.6638 C.2         1 MOL       0.2046
     15 O         -28.7745   47.5029   34.5148 O.2         1 MOL      -0.3944
     16 CB        -30.4788   45.7406   36.2641 C.3         1 MOL       0.0400
     17 CG        -30.9443   46.2078   37.6031 C.ar        1 MOL      -0.0004
     18 CD1       -31.1506   45.2832   38.6531 C.ar        1 MOL      -0.0239
     19 CD2       -31.0644   47.5858   37.8888 C.ar        1 MOL      -0.0239
     20 CE1       -31.3971   45.7275   39.9670 C.ar        1 MOL       0.0115
     21 CE2       -31.3114   48.0352   39.1994 C.ar        1 MOL       0.0115
     22 CZ        -31.4772   47.1069   40.2493 C.ar        1 MOL       0.1728
     23 OH        -31.5558   47.5398   41.5453 O.3         1 MOL      -0.2040
     24 P         -33.0112   47.6798   42.0818 P.3         1 MOL       0.1348
     25 O1P       -32.9141   47.9404   43.4982 O.co2       1 MOL      -0.6653
     26 O2P       -33.7962   46.4767   41.9384 O.co2       1 MOL      -0.6653
     27 O3P       -33.7139   48.8027   41.5033 O.co2       1 MOL      -0.6653
     28 N         -27.7393   47.9437   36.4362 N.am        1 MOL      -0.2712
     29 CA        -27.2038   49.2774   36.2063 C.3         1 MOL       0.1461
     30 CH3       -26.1748   49.4260   37.3812 C.3         1 MOL      -0.0287
     31 C         -28.2252   50.3339   36.3566 C.2         1 MOL       0.2294
     32 O         -29.4176   50.0549   36.3386 O.2         1 MOL      -0.3416
     33 CB        -26.4142   49.4156   34.8414 C.3         1 MOL       0.0325
     34 CG        -27.1910   49.5800   33.5711 C.ar        1 MOL      -0.0034
     35 CD1       -27.9823   50.7322   33.3439 C.ar        1 MOL      -0.0242
     36 CD2       -27.1082   48.6158   32.5355 C.ar        1 MOL      -0.0242
     37 CE1       -28.7367   50.8785   32.1659 C.ar        1 MOL       0.0115
     38 CE2       -27.8597   48.7625   31.3481 C.ar        1 MOL       0.0115
     39 CZ        -28.7112   49.8792   31.1719 C.ar        1 MOL       0.1728
     40 OH        -29.4303   50.0571   30.0178 O.3         1 MOL      -0.2040
     41 P         -30.8231   49.3627   30.0352 P.3         1 MOL       0.1348
     42 O1P       -31.5733   49.8079   28.8842 O.co2       1 MOL      -0.6653
     43 O2P       -31.6124   49.6702   31.2044 O.co2       1 MOL      -0.6653
     44 O3P       -30.6888   47.9297   29.9103 O.co2       1 MOL      -0.6653
     45 N         -27.8695   51.6106   36.4704 N.am        1 MOL      -0.2663
     46 CA        -28.7414   52.7339   36.6918 C.3         1 MOL       0.1112
     47 C         -27.8947   53.9429   36.6051 C.2         1 MOL       0.0626
     48 O         -26.8051   54.0564   37.3992 O.co2       1 MOL      -0.5664
     49 CB        -29.5848   52.5885   38.0157 C.3         1 MOL       0.0720
     50 CG        -29.4558   53.6327   39.0178 C.2         1 MOL       0.1774
     51 OD1       -29.7393   54.7874   38.7380 O.2         1 MOL      -0.3971
     52 ND2       -28.9797   53.3743   40.2187 N.am        1 MOL      -0.3007
     53 OXT       -28.1413   54.9204   35.7068 O.co2       1 MOL      -0.5664
     54 H1        -30.9299   42.4054   43.0952 H           1 MOL       0.0566
     55 H2        -28.7303   42.8739   42.2191 H           1 MOL       0.0448
     56 H3        -30.0136   41.6396   38.3930 H           1 MOL       0.0451
     57 H4        -32.6801   41.5702   41.6419 H           1 MOL       0.0459
     58 H5        -27.4473   41.7751   39.0470 H           1 MOL       0.0774
     59 H6        -27.0930   42.7173   40.4828 H           1 MOL       0.0774
     60 H7        -32.2571   40.9469   38.1348 H           1 MOL       0.1718
     61 H8        -33.3317   40.9048   39.4183 H           1 MOL       0.1718
     62 H9        -28.0719   46.0042   37.9646 H           1 MOL       0.1902
     63 H10       -28.6393   45.1459   35.2635 H           1 MOL       0.0839
     64 H11       -30.7724   44.6966   36.1186 H           1 MOL       0.0584
     65 H12       -30.9989   46.3003   35.4833 H           1 MOL       0.0584
     66 H13       -31.0780   44.2827   38.4780 H           1 MOL       0.0703
     67 H14       -30.9426   48.2724   37.1491 H           1 MOL       0.0703
     68 H15       -31.4963   45.0449   40.7192 H           1 MOL       0.0736
     69 H16       -31.3512   49.0374   39.3933 H           1 MOL       0.0736
     70 H17       -27.5815   47.5987   37.3360 H           1 MOL       0.1842
     71 H18       -25.6211   50.3686   37.3284 H           1 MOL       0.0244
     72 H19       -25.4377   48.6198   37.3579 H           1 MOL       0.0244
     73 H20       -26.6790   49.3948   38.3512 H           1 MOL       0.0244
     74 H21       -25.7634   48.5399   34.7568 H           1 MOL       0.0549
     75 H22       -25.7401   50.2748   34.9049 H           1 MOL       0.0549
     76 H23       -28.0275   51.4817   34.0375 H           1 MOL       0.0703
     77 H24       -26.5262   47.7810   32.6458 H           1 MOL       0.0703
     78 H25       -29.3075   51.7174   32.0307 H           1 MOL       0.0736
     79 H26       -27.8137   48.0397   30.6296 H           1 MOL       0.0736
     80 H27       -26.9175   51.8043   36.4188 H           1 MOL       0.1883
     81 H28       -29.4431   52.7753   35.8502 H           1 MOL       0.0754
     82 H29       -29.3579   51.6237   38.4873 H           1 MOL       0.0544
     83 H30       -30.6457   52.5365   37.7482 H           1 MOL       0.0544
     84 H31       -28.8628   54.0835   40.8660 H           1 MOL       0.1814
     85 H32       -28.7262   52.4681   40.4583 H           1 MOL       0.1814
@<TRIPOS>BOND
     1     1     5  ar
     2     2     1  ar
     3     3     2  ar
     4     6     3   1
     5     3     4  ar
     6     4    11  ar
     7    11    10   1
     8    11     5  ar
     9     7     6   1
    10     8     7   1
    11     8     9   2
    12    13    12   1
    13    13    16   1
    14    14    13   1
    15    14    15   2
    16    16    17   1
    17    17    19  ar
    18    17    18  ar
    19    18    20  ar
    20    20    22  ar
    21    22    23   1
    22    21    22  ar
    23    19    21  ar
    24    23    24   1
    25    24    27  ar
    26    24    26  ar
    27    24    25  ar
    28    29    28   1
    29    29    33   1
    30    31    29   1
    31    29    30   1
    32    31    32   2
    33    33    34   1
    34    34    36  ar
    35    34    35  ar
    36    35    37  ar
    37    37    39  ar
    38    39    40   1
    39    38    39  ar
    40    36    38  ar
    41    40    41   1
    42    41    44  ar
    43    41    43  ar
    44    41    42  ar
    45    46    47   1
    46    46    49   1
    47    45    46   1
    48    49    50   1
    49    50    51   2
    50    50    52  am
    51    47    53  ar
    52    47    48  ar
    53    28    14  am
    54    12     8  am
    55    31    45  am
    56     1    54   1
    57     2    55   1
    58     4    56   1
    59     5    57   1
    60     6    58   1
    61     6    59   1
    62    10    60   1
    63    10    61   1
    64    12    62   1
    65    13    63   1
    66    16    64   1
    67    16    65   1
    68    18    66   1
    69    19    67   1
    70    20    68   1
    71    21    69   1
    72    28    70   1
    73    30    71   1
    74    30    72   1
    75    30    73   1
    76    33    74   1
    77    33    75   1
    78    35    76   1
    79    36    77   1
    80    37    78   1
    81    38    79   1
    82    45    80   1
    83    46    81   1
    84    49    82   1
    85    49    83   1
    86    52    84   1
    87    52    85   1
@<TRIPOS>SUBSTRUCTURE
     1  MOL      1

