@<TRIPOS>MOLECULE
1jyq_ligand_080
    85    87
SMALL
GAST_HUCK
****
This file was generated by PARSER (from files_GN.cpp)

@<TRIPOS>ATOM
      1 C1        -30.8378   43.5202   33.1799 C.ar        1 MOL      -0.0801
      2 C2        -29.6280   43.7630   32.5048 C.ar        1 MOL      -0.0711
      3 C3        -29.6177   44.4426   31.2650 C.ar        1 MOL      -0.0250
      4 C4        -30.8515   44.8561   30.7078 C.ar        1 MOL      -0.0414
      5 C6        -32.0574   43.9333   32.6173 C.ar        1 MOL      -0.0516
      6 C12       -28.3338   44.6471   30.5507 C.3         1 MOL       0.1084
      7 O13       -27.3137   45.1663   31.4185 O.3         1 MOL      -0.2508
      8 C16       -26.9953   46.4698   31.6651 C.2         1 MOL       0.3241
      9 O18       -27.6650   47.4903   31.0676 O.2         1 MOL      -0.3773
     10 N11       -33.2372   44.9506   30.8103 N.pl3       1 MOL      -0.3383
     11 C5        -32.0692   44.5904   31.3708 C.ar        1 MOL       0.0282
     12 N         -25.9444   46.6754   32.4890 N.am        1 MOL      -0.2380
     13 CA        -25.3198   47.9124   32.8891 C.3         1 MOL       0.1484
     14 C         -26.2076   48.7410   33.7118 C.2         1 MOL       0.2046
     15 O         -26.0355   48.7577   34.9313 O.2         1 MOL      -0.3944
     16 CB        -24.5137   48.6501   31.7608 C.3         1 MOL       0.0400
     17 CG        -25.1571   48.7543   30.4222 C.ar        1 MOL      -0.0004
     18 CD1       -24.8967   47.7919   29.4175 C.ar        1 MOL      -0.0239
     19 CD2       -25.9785   49.8523   30.1033 C.ar        1 MOL      -0.0239
     20 CE1       -25.5216   47.8796   28.1602 C.ar        1 MOL       0.0115
     21 CE2       -26.6125   49.9387   28.8487 C.ar        1 MOL       0.0115
     22 CZ        -26.4201   48.9289   27.8867 C.ar        1 MOL       0.1728
     23 OH        -27.0561   49.0023   26.6795 O.3         1 MOL      -0.2040
     24 P         -28.4297   48.2691   26.6595 P.3         1 MOL       0.1348
     25 O1P       -28.3134   46.8671   26.9743 O.co2       1 MOL      -0.6653
     26 O2P       -28.9530   48.3466   25.3198 O.co2       1 MOL      -0.6653
     27 O3P       -29.4142   48.8758   27.5236 O.co2       1 MOL      -0.6653
     28 N         -27.2132   49.4317   33.1878 N.am        1 MOL      -0.2712
     29 CA        -28.2912   50.1262   33.8860 C.3         1 MOL       0.1461
     30 CH3       -29.1487   50.7665   32.7384 C.3         1 MOL      -0.0287
     31 C         -27.8070   51.2347   34.7420 C.2         1 MOL       0.2294
     32 O         -26.6092   51.4945   34.8195 O.2         1 MOL      -0.3416
     33 CB        -29.1028   49.0478   34.7429 C.3         1 MOL       0.0325
     34 CG        -30.5632   48.9002   34.4757 C.ar        1 MOL      -0.0034
     35 CD1       -31.0329   48.0335   33.4561 C.ar        1 MOL      -0.0242
     36 CD2       -31.5121   49.6448   35.2156 C.ar        1 MOL      -0.0242
     37 CE1       -32.4027   47.9603   33.1504 C.ar        1 MOL       0.0115
     38 CE2       -32.8794   49.5701   34.9088 C.ar        1 MOL       0.0115
     39 CZ        -33.3348   48.7589   33.8470 C.ar        1 MOL       0.1728
     40 OH        -34.6725   48.7159   33.5766 O.3         1 MOL      -0.2040
     41 P         -35.1399   49.6433   32.4192 P.3         1 MOL       0.1348
     42 O1P       -34.3258   50.8074   32.1613 O.co2       1 MOL      -0.6653
     43 O2P       -36.4543   50.1327   32.7703 O.co2       1 MOL      -0.6653
     44 O3P       -35.3054   48.8911   31.1965 O.co2       1 MOL      -0.6653
     45 N         -28.6771   51.9277   35.4706 N.am        1 MOL      -0.2663
     46 CA        -28.4247   52.9180   36.4816 C.3         1 MOL       0.1112
     47 C         -27.8101   54.1672   35.9827 C.2         1 MOL       0.0626
     48 O         -27.6595   55.2269   36.8072 O.co2       1 MOL      -0.5664
     49 CB        -27.6372   52.3296   37.7062 C.3         1 MOL       0.0720
     50 CG        -28.1823   52.7284   38.9902 C.2         1 MOL       0.1774
     51 OD1       -29.2219   52.2149   39.3927 O.2         1 MOL      -0.3971
     52 ND2       -27.6215   53.6489   39.7459 N.am        1 MOL      -0.3007
     53 OXT       -27.4053   54.3239   34.7024 O.co2       1 MOL      -0.5664
     54 H1        -30.8302   43.0264   34.0766 H           1 MOL       0.0566
     55 H2        -28.7551   43.4363   32.9228 H           1 MOL       0.0448
     56 H3        -30.8696   45.3320   29.7986 H           1 MOL       0.0451
     57 H4        -32.9318   43.7343   33.1052 H           1 MOL       0.0459
     58 H5        -28.4429   45.2965   29.6774 H           1 MOL       0.0774
     59 H6        -27.9943   43.6754   30.1873 H           1 MOL       0.0774
     60 H7        -33.2484   45.3944   29.9453 H           1 MOL       0.1718
     61 H8        -34.0758   44.7557   31.2605 H           1 MOL       0.1718
     62 H9        -25.5587   45.8755   32.8973 H           1 MOL       0.1902
     63 H10       -24.5462   47.5546   33.5794 H           1 MOL       0.0839
     64 H11       -23.5602   48.1235   31.6419 H           1 MOL       0.0584
     65 H12       -24.2467   49.6488   32.1196 H           1 MOL       0.0584
     66 H13       -24.2804   46.9984   29.6060 H           1 MOL       0.0703
     67 H14       -26.1456   50.5828   30.7962 H           1 MOL       0.0703
     68 H15       -25.3396   47.1629   27.4541 H           1 MOL       0.0736
     69 H16       -27.2278   50.7318   28.6550 H           1 MOL       0.0736
     70 H17       -27.2880   49.3937   32.2170 H           1 MOL       0.1842
     71 H18       -30.0158   51.2977   33.1338 H           1 MOL       0.0244
     72 H19       -29.5136   49.9993   32.0496 H           1 MOL       0.0244
     73 H20       -28.5597   51.4790   32.1548 H           1 MOL       0.0244
     74 H21       -28.9678   49.2430   35.8119 H           1 MOL       0.0549
     75 H22       -28.6690   48.0521   34.6085 H           1 MOL       0.0549
     76 H23       -30.3738   47.4655   32.9189 H           1 MOL       0.0703
     77 H24       -31.2047   50.2610   35.9731 H           1 MOL       0.0703
     78 H25       -32.7242   47.3472   32.3987 H           1 MOL       0.0736
     79 H26       -33.5487   50.1258   35.4461 H           1 MOL       0.0736
     80 H27       -29.6091   51.6991   35.3311 H           1 MOL       0.1883
     81 H28       -29.4264   53.2000   36.8186 H           1 MOL       0.0754
     82 H29       -26.5793   52.6195   37.6454 H           1 MOL       0.0544
     83 H30       -27.6486   51.2336   37.6730 H           1 MOL       0.0544
     84 H31       -28.0189   53.8916   40.5960 H           1 MOL       0.1814
     85 H32       -26.8048   54.0816   39.4572 H           1 MOL       0.1814
@<TRIPOS>BOND
     1     1     5  ar
     2     2     1  ar
     3     3     2  ar
     4     6     3   1
     5     3     4  ar
     6     4    11  ar
     7    11    10   1
     8    11     5  ar
     9     7     6   1
    10     8     7   1
    11     8     9   2
    12    13    12   1
    13    13    16   1
    14    14    13   1
    15    14    15   2
    16    16    17   1
    17    17    19  ar
    18    17    18  ar
    19    18    20  ar
    20    20    22  ar
    21    22    23   1
    22    21    22  ar
    23    19    21  ar
    24    23    24   1
    25    24    27  ar
    26    24    26  ar
    27    24    25  ar
    28    29    28   1
    29    29    33   1
    30    31    29   1
    31    29    30   1
    32    31    32   2
    33    33    34   1
    34    34    36  ar
    35    34    35  ar
    36    35    37  ar
    37    37    39  ar
    38    39    40   1
    39    38    39  ar
    40    36    38  ar
    41    40    41   1
    42    41    44  ar
    43    41    43  ar
    44    41    42  ar
    45    46    47   1
    46    46    49   1
    47    45    46   1
    48    49    50   1
    49    50    51   2
    50    50    52  am
    51    47    53  ar
    52    47    48  ar
    53    28    14  am
    54    12     8  am
    55    31    45  am
    56     1    54   1
    57     2    55   1
    58     4    56   1
    59     5    57   1
    60     6    58   1
    61     6    59   1
    62    10    60   1
    63    10    61   1
    64    12    62   1
    65    13    63   1
    66    16    64   1
    67    16    65   1
    68    18    66   1
    69    19    67   1
    70    20    68   1
    71    21    69   1
    72    28    70   1
    73    30    71   1
    74    30    72   1
    75    30    73   1
    76    33    74   1
    77    33    75   1
    78    35    76   1
    79    36    77   1
    80    37    78   1
    81    38    79   1
    82    45    80   1
    83    46    81   1
    84    49    82   1
    85    49    83   1
    86    52    84   1
    87    52    85   1
@<TRIPOS>SUBSTRUCTURE
     1  MOL      1

