@<TRIPOS>MOLECULE
1jyq_ligand_075
    85    87
SMALL
GAST_HUCK
****
This file was generated by PARSER (from files_GN.cpp)

@<TRIPOS>ATOM
      1 C1        -27.0974   49.5526   29.8905 C.ar        1 MOL      -0.0801
      2 C2        -27.7526   48.3606   30.2509 C.ar        1 MOL      -0.0711
      3 C3        -27.0236   47.1557   30.4085 C.ar        1 MOL      -0.0250
      4 C4        -25.6292   47.1793   30.1702 C.ar        1 MOL      -0.0414
      5 C6        -25.7090   49.5609   29.6745 C.ar        1 MOL      -0.0516
      6 C12       -27.7125   45.8878   30.7640 C.3         1 MOL       0.1084
      7 O13       -28.7362   46.0080   31.7647 O.3         1 MOL      -0.2508
      8 C16       -28.6612   46.5620   33.0028 C.2         1 MOL       0.3241
      9 O18       -27.5180   47.1569   33.4177 O.2         1 MOL      -0.3773
     10 N11       -23.6428   48.3742   29.5674 N.pl3       1 MOL      -0.3383
     11 C5        -24.9672   48.3655   29.7997 C.ar        1 MOL       0.0282
     12 N         -29.7764   46.4953   33.7683 N.am        1 MOL      -0.2380
     13 CA        -30.0078   47.0487   35.0756 C.3         1 MOL       0.1484
     14 C         -29.9676   48.5084   35.0662 C.2         1 MOL       0.2046
     15 O         -29.0917   49.0877   34.4317 O.2         1 MOL      -0.3944
     16 CB        -29.1354   46.4452   36.2284 C.3         1 MOL       0.0400
     17 CG        -29.7976   45.3052   36.9191 C.ar        1 MOL      -0.0004
     18 CD1       -29.9680   44.0661   36.2582 C.ar        1 MOL      -0.0239
     19 CD2       -30.3365   45.4532   38.2203 C.ar        1 MOL      -0.0239
     20 CE1       -30.6401   43.0011   36.8891 C.ar        1 MOL       0.0115
     21 CE2       -31.0144   44.3905   38.8464 C.ar        1 MOL       0.0115
     22 CZ        -31.1504   43.1484   38.1929 C.ar        1 MOL       0.1728
     23 OH        -31.8644   42.1083   38.7308 O.3         1 MOL      -0.2040
     24 P         -31.1464   41.3036   39.8535 P.3         1 MOL       0.1348
     25 O1P       -30.9593   42.1173   41.0285 O.co2       1 MOL      -0.6653
     26 O2P       -29.8857   40.7113   39.4699 O.co2       1 MOL      -0.6653
     27 O3P       -32.0242   40.2201   40.2268 O.co2       1 MOL      -0.6653
     28 N         -30.7995   49.1918   35.8566 N.am        1 MOL      -0.2712
     29 CA        -30.9093   50.6282   36.0472 C.3         1 MOL       0.1461
     30 CH3       -31.2254   51.2409   34.6388 C.3         1 MOL      -0.0287
     31 C         -29.6898   51.1928   36.6610 C.2         1 MOL       0.2294
     32 O         -28.7895   50.4472   37.0632 O.2         1 MOL      -0.3416
     33 CB        -32.1343   50.8323   37.0233 C.3         1 MOL       0.0325
     34 CG        -32.4729   52.2334   37.4173 C.ar        1 MOL      -0.0034
     35 CD1       -32.1177   52.7156   38.7005 C.ar        1 MOL      -0.0242
     36 CD2       -33.1130   53.1178   36.5185 C.ar        1 MOL      -0.0242
     37 CE1       -32.3624   54.0509   39.0605 C.ar        1 MOL       0.0115
     38 CE2       -33.3691   54.4523   36.8843 C.ar        1 MOL       0.0115
     39 CZ        -33.0126   54.9239   38.1653 C.ar        1 MOL       0.1728
     40 OH        -33.1826   56.2391   38.5055 O.3         1 MOL      -0.2040
     41 P         -34.5496   56.5581   39.1708 P.3         1 MOL       0.1348
     42 O1P       -34.5117   57.9402   39.5724 O.co2       1 MOL      -0.6653
     43 O2P       -34.8233   55.7696   40.3489 O.co2       1 MOL      -0.6653
     44 O3P       -35.6352   56.4274   38.2254 O.co2       1 MOL      -0.6653
     45 N         -29.5898   52.5082   36.8381 N.am        1 MOL      -0.2663
     46 CA        -28.5531   53.2339   37.5188 C.3         1 MOL       0.1112
     47 C         -28.6030   54.6405   37.0585 C.2         1 MOL       0.0626
     48 O         -28.2987   55.6459   37.9098 O.co2       1 MOL      -0.5664
     49 CB        -27.1138   52.6433   37.4072 C.3         1 MOL       0.0720
     50 CG        -26.3418   52.9753   36.2166 C.2         1 MOL       0.1774
     51 OD1       -26.8626   53.0894   35.1058 O.2         1 MOL      -0.3971
     52 ND2       -25.0256   53.0429   36.2927 N.am        1 MOL      -0.3007
     53 OXT       -28.6120   54.9328   35.7359 O.co2       1 MOL      -0.5664
     54 H1        -27.6324   50.4185   29.7809 H           1 MOL       0.0566
     55 H2        -28.7646   48.3727   30.3901 H           1 MOL       0.0448
     56 H3        -25.0875   46.3102   30.2408 H           1 MOL       0.0451
     57 H4        -25.2433   50.4299   29.4015 H           1 MOL       0.0459
     58 H5        -26.9988   45.1372   31.1113 H           1 MOL       0.0774
     59 H6        -28.1822   45.4970   29.8613 H           1 MOL       0.0774
     60 H7        -23.1199   47.5563   29.6416 H           1 MOL       0.1718
     61 H8        -23.2040   49.1993   29.3055 H           1 MOL       0.1718
     62 H9        -30.5337   46.0395   33.3699 H           1 MOL       0.1902
     63 H10       -31.0466   46.7671   35.2939 H           1 MOL       0.0839
     64 H11       -28.9263   47.2201   36.9722 H           1 MOL       0.0584
     65 H12       -28.1632   46.1279   35.8519 H           1 MOL       0.0584
     66 H13       -29.6154   43.9381   35.3053 H           1 MOL       0.0703
     67 H14       -30.2611   46.3470   38.7102 H           1 MOL       0.0703
     68 H15       -30.7681   42.1205   36.3861 H           1 MOL       0.0736
     69 H16       -31.4150   44.5292   39.7773 H           1 MOL       0.0736
     70 H17       -31.4147   48.6548   36.3864 H           1 MOL       0.1842
     71 H18       -31.4663   52.3032   34.7214 H           1 MOL       0.0244
     72 H19       -32.0846   50.7343   34.1838 H           1 MOL       0.0244
     73 H20       -30.3681   51.1402   33.9670 H           1 MOL       0.0244
     74 H21       -31.9419   50.2645   37.9429 H           1 MOL       0.0549
     75 H22       -33.0257   50.3689   36.5840 H           1 MOL       0.0549
     76 H23       -31.6425   52.1022   39.3687 H           1 MOL       0.0703
     77 H24       -33.3863   52.8012   35.5878 H           1 MOL       0.0703
     78 H25       -32.0699   54.3887   39.9791 H           1 MOL       0.0736
     79 H26       -33.8220   55.0832   36.2199 H           1 MOL       0.0736
     80 H27       -30.3800   53.0276   36.5905 H           1 MOL       0.1883
     81 H28       -28.8135   53.2343   38.5872 H           1 MOL       0.0754
     82 H29       -27.1587   51.5551   37.4606 H           1 MOL       0.0544
     83 H30       -26.5559   52.9686   38.2977 H           1 MOL       0.0544
     84 H31       -24.4966   53.2348   35.4989 H           1 MOL       0.1814
     85 H32       -24.5732   52.8963   37.1477 H           1 MOL       0.1814
@<TRIPOS>BOND
     1     1     5  ar
     2     2     1  ar
     3     3     2  ar
     4     6     3   1
     5     3     4  ar
     6     4    11  ar
     7    11    10   1
     8    11     5  ar
     9     7     6   1
    10     8     7   1
    11     8     9   2
    12    13    12   1
    13    13    16   1
    14    14    13   1
    15    14    15   2
    16    16    17   1
    17    17    19  ar
    18    17    18  ar
    19    18    20  ar
    20    20    22  ar
    21    22    23   1
    22    21    22  ar
    23    19    21  ar
    24    23    24   1
    25    24    27  ar
    26    24    26  ar
    27    24    25  ar
    28    29    28   1
    29    29    33   1
    30    31    29   1
    31    29    30   1
    32    31    32   2
    33    33    34   1
    34    34    36  ar
    35    34    35  ar
    36    35    37  ar
    37    37    39  ar
    38    39    40   1
    39    38    39  ar
    40    36    38  ar
    41    40    41   1
    42    41    44  ar
    43    41    43  ar
    44    41    42  ar
    45    46    47   1
    46    46    49   1
    47    45    46   1
    48    49    50   1
    49    50    51   2
    50    50    52  am
    51    47    53  ar
    52    47    48  ar
    53    28    14  am
    54    12     8  am
    55    31    45  am
    56     1    54   1
    57     2    55   1
    58     4    56   1
    59     5    57   1
    60     6    58   1
    61     6    59   1
    62    10    60   1
    63    10    61   1
    64    12    62   1
    65    13    63   1
    66    16    64   1
    67    16    65   1
    68    18    66   1
    69    19    67   1
    70    20    68   1
    71    21    69   1
    72    28    70   1
    73    30    71   1
    74    30    72   1
    75    30    73   1
    76    33    74   1
    77    33    75   1
    78    35    76   1
    79    36    77   1
    80    37    78   1
    81    38    79   1
    82    45    80   1
    83    46    81   1
    84    49    82   1
    85    49    83   1
    86    52    84   1
    87    52    85   1
@<TRIPOS>SUBSTRUCTURE
     1  MOL      1

