@<TRIPOS>MOLECULE
1jyq_ligand_022
    85    87
SMALL
GAST_HUCK
****
This file was generated by PARSER (from files_GN.cpp)

@<TRIPOS>ATOM
      1 C1        -29.3734   44.9540   29.4646 C.ar        1 MOL      -0.0801
      2 C2        -28.1044   45.0820   30.0622 C.ar        1 MOL      -0.0711
      3 C3        -27.6774   44.1631   31.0522 C.ar        1 MOL      -0.0250
      4 C4        -28.5547   43.1111   31.4139 C.ar        1 MOL      -0.0414
      5 C6        -30.2251   43.9001   29.8288 C.ar        1 MOL      -0.0516
      6 C12       -26.3201   44.2070   31.6689 C.3         1 MOL       0.1084
      7 O13       -25.5656   45.4197   31.4791 O.3         1 MOL      -0.2508
      8 C16       -25.8173   46.6306   32.0433 C.2         1 MOL       0.3241
      9 O18       -26.8575   46.7580   32.8909 O.2         1 MOL      -0.3773
     10 N11       -30.6408   41.9605   31.1382 N.pl3       1 MOL      -0.3383
     11 C5        -29.8202   42.9738   30.8046 C.ar        1 MOL       0.0282
     12 N         -25.0362   47.6706   31.6432 N.am        1 MOL      -0.2380
     13 CA        -25.0858   49.0644   32.0075 C.3         1 MOL       0.1484
     14 C         -25.9415   49.4305   33.1391 C.2         1 MOL       0.2046
     15 O         -25.5666   49.0875   34.2551 O.2         1 MOL      -0.3944
     16 CB        -25.2131   49.9459   30.7118 C.3         1 MOL       0.0400
     17 CG        -26.2875   49.7043   29.7069 C.ar        1 MOL      -0.0004
     18 CD1       -26.2070   50.3619   28.4552 C.ar        1 MOL      -0.0239
     19 CD2       -27.3947   48.8552   29.9382 C.ar        1 MOL      -0.0239
     20 CE1       -27.1773   50.1480   27.4530 C.ar        1 MOL       0.0115
     21 CE2       -28.3609   48.6430   28.9481 C.ar        1 MOL       0.0115
     22 CZ        -28.2450   49.2601   27.6845 C.ar        1 MOL       0.1728
     23 OH        -29.2414   49.0849   26.7633 O.3         1 MOL      -0.2040
     24 P         -29.1850   47.7474   25.9628 P.3         1 MOL       0.1348
     25 O1P       -28.4280   46.6576   26.5228 O.co2       1 MOL      -0.6653
     26 O2P       -28.7174   47.9949   24.6216 O.co2       1 MOL      -0.6653
     27 O3P       -30.5431   47.2834   25.8368 O.co2       1 MOL      -0.6653
     28 N         -27.1085   50.0446   32.9838 N.am        1 MOL      -0.2712
     29 CA        -28.1375   50.3788   33.9608 C.3         1 MOL       0.1461
     30 CH3       -29.2596   51.0219   33.0677 C.3         1 MOL      -0.0287
     31 C         -27.6704   51.3816   34.9512 C.2         1 MOL       0.2294
     32 O         -26.4819   51.6365   35.0814 O.2         1 MOL      -0.3416
     33 CB        -28.6834   49.0512   34.6218 C.3         1 MOL       0.0325
     34 CG        -29.5868   49.1708   35.8083 C.ar        1 MOL      -0.0034
     35 CD1       -29.0365   49.2343   37.1142 C.ar        1 MOL      -0.0242
     36 CD2       -30.9931   49.1954   35.6792 C.ar        1 MOL      -0.0242
     37 CE1       -29.8637   49.3495   38.2462 C.ar        1 MOL       0.0115
     38 CE2       -31.8247   49.2835   36.8147 C.ar        1 MOL       0.0115
     39 CZ        -31.2655   49.3446   38.1072 C.ar        1 MOL       0.1728
     40 OH        -32.0971   49.4847   39.1859 O.3         1 MOL      -0.2040
     41 P         -32.3717   48.1590   39.9625 P.3         1 MOL       0.1348
     42 O1P       -33.4723   48.4021   40.8549 O.co2       1 MOL      -0.6653
     43 O2P       -31.2439   47.7913   40.7922 O.co2       1 MOL      -0.6653
     44 O3P       -32.7408   47.0464   39.1280 O.co2       1 MOL      -0.6653
     45 N         -28.5537   52.0532   35.6861 N.am        1 MOL      -0.2663
     46 CA        -28.3548   53.0862   36.6658 C.3         1 MOL       0.1112
     47 C         -27.7469   54.3302   36.1271 C.2         1 MOL       0.0626
     48 O         -27.8967   55.4928   36.7978 O.co2       1 MOL      -0.5664
     49 CB        -27.6181   52.5923   37.9603 C.3         1 MOL       0.0720
     50 CG        -28.2448   53.0527   39.1889 C.2         1 MOL       0.1774
     51 OD1       -29.3424   52.6238   39.5117 O.2         1 MOL      -0.3971
     52 ND2       -27.6672   53.9212   39.9869 N.am        1 MOL      -0.3007
     53 OXT       -27.0621   54.3736   34.9638 O.co2       1 MOL      -0.5664
     54 H1        -29.6758   45.6131   28.7455 H           1 MOL       0.0566
     55 H2        -27.4852   45.8313   29.7457 H           1 MOL       0.0448
     56 H3        -28.2612   42.4277   32.1180 H           1 MOL       0.0451
     57 H4        -31.1362   43.8005   29.3711 H           1 MOL       0.0459
     58 H5        -25.7337   43.3964   31.2329 H           1 MOL       0.0774
     59 H6        -26.3944   44.0144   32.7438 H           1 MOL       0.0774
     60 H7        -30.3779   41.3126   31.8106 H           1 MOL       0.1718
     61 H8        -31.5017   41.8766   30.7005 H           1 MOL       0.1718
     62 H9        -24.3790   47.4544   30.9667 H           1 MOL       0.1902
     63 H10       -24.0683   49.2810   32.3527 H           1 MOL       0.0839
     64 H11       -24.2609   49.8422   30.1789 H           1 MOL       0.0584
     65 H12       -25.2761   50.9913   31.0178 H           1 MOL       0.0584
     66 H13       -25.4356   51.0097   28.2593 H           1 MOL       0.0703
     67 H14       -27.5213   48.3887   30.8375 H           1 MOL       0.0703
     68 H15       -27.0997   50.6426   26.5565 H           1 MOL       0.0736
     69 H16       -29.1578   48.0311   29.1405 H           1 MOL       0.0736
     70 H17       -27.3277   50.2746   32.0690 H           1 MOL       0.1842
     71 H18       -30.1502   51.2582   33.6518 H           1 MOL       0.0244
     72 H19       -29.5623   50.3386   32.2710 H           1 MOL       0.0244
     73 H20       -28.9055   51.9481   32.6025 H           1 MOL       0.0244
     74 H21       -27.8436   48.4334   34.9396 H           1 MOL       0.0549
     75 H22       -29.1859   48.4536   33.8562 H           1 MOL       0.0549
     76 H23       -28.0239   49.2133   37.2454 H           1 MOL       0.0703
     77 H24       -31.4284   49.1522   34.7522 H           1 MOL       0.0703
     78 H25       -29.4415   49.4313   39.1755 H           1 MOL       0.0736
     79 H26       -32.8395   49.3038   36.6992 H           1 MOL       0.0736
     80 H27       -29.4822   51.8164   35.5335 H           1 MOL       0.1883
     81 H28       -29.3785   53.3652   36.9222 H           1 MOL       0.0754
     82 H29       -26.5711   52.9052   37.9376 H           1 MOL       0.0544
     83 H30       -27.6026   51.5034   37.9966 H           1 MOL       0.0544
     84 H31       -28.1079   54.1935   40.8027 H           1 MOL       0.1814
     85 H32       -26.7985   54.2883   39.7670 H           1 MOL       0.1814
@<TRIPOS>BOND
     1     1     5  ar
     2     2     1  ar
     3     3     2  ar
     4     6     3   1
     5     3     4  ar
     6     4    11  ar
     7    11    10   1
     8    11     5  ar
     9     7     6   1
    10     8     7   1
    11     8     9   2
    12    13    12   1
    13    13    16   1
    14    14    13   1
    15    14    15   2
    16    16    17   1
    17    17    19  ar
    18    17    18  ar
    19    18    20  ar
    20    20    22  ar
    21    22    23   1
    22    21    22  ar
    23    19    21  ar
    24    23    24   1
    25    24    27  ar
    26    24    26  ar
    27    24    25  ar
    28    29    28   1
    29    29    33   1
    30    31    29   1
    31    29    30   1
    32    31    32   2
    33    33    34   1
    34    34    36  ar
    35    34    35  ar
    36    35    37  ar
    37    37    39  ar
    38    39    40   1
    39    38    39  ar
    40    36    38  ar
    41    40    41   1
    42    41    44  ar
    43    41    43  ar
    44    41    42  ar
    45    46    47   1
    46    46    49   1
    47    45    46   1
    48    49    50   1
    49    50    51   2
    50    50    52  am
    51    47    53  ar
    52    47    48  ar
    53    28    14  am
    54    12     8  am
    55    31    45  am
    56     1    54   1
    57     2    55   1
    58     4    56   1
    59     5    57   1
    60     6    58   1
    61     6    59   1
    62    10    60   1
    63    10    61   1
    64    12    62   1
    65    13    63   1
    66    16    64   1
    67    16    65   1
    68    18    66   1
    69    19    67   1
    70    20    68   1
    71    21    69   1
    72    28    70   1
    73    30    71   1
    74    30    72   1
    75    30    73   1
    76    33    74   1
    77    33    75   1
    78    35    76   1
    79    36    77   1
    80    37    78   1
    81    38    79   1
    82    45    80   1
    83    46    81   1
    84    49    82   1
    85    49    83   1
    86    52    84   1
    87    52    85   1
@<TRIPOS>SUBSTRUCTURE
     1  MOL      1

