@<TRIPOS>MOLECULE
1jyq_ligand_042
    85    87
SMALL
GAST_HUCK
****
This file was generated by PARSER (from files_GN.cpp)

@<TRIPOS>ATOM
      1 C1        -24.0631   39.3109   30.8159 C.ar        1 MOL      -0.0801
      2 C2        -24.5518   39.9439   31.9758 C.ar        1 MOL      -0.0711
      3 C3        -23.8729   41.0572   32.5280 C.ar        1 MOL      -0.0250
      4 C4        -22.6731   41.4922   31.9125 C.ar        1 MOL      -0.0414
      5 C6        -22.8884   39.7736   30.1961 C.ar        1 MOL      -0.0516
      6 C12       -24.4071   41.7583   33.7276 C.3         1 MOL       0.1084
      7 O13       -25.8157   42.0278   33.6951 O.3         1 MOL      -0.2508
      8 C16       -26.5776   42.4540   32.6512 C.2         1 MOL       0.3241
      9 O18       -26.0574   42.5989   31.4087 O.2         1 MOL      -0.3773
     10 N11       -21.0170   41.2699   30.2206 N.pl3       1 MOL      -0.3383
     11 C5        -22.1766   40.8573   30.7562 C.ar        1 MOL       0.0282
     12 N         -27.8828   42.6776   32.9122 N.am        1 MOL      -0.2380
     13 CA        -28.9335   42.8930   31.9587 C.3         1 MOL       0.1484
     14 C         -28.7625   44.1251   31.1925 C.2         1 MOL       0.2046
     15 O         -29.0646   44.1383   30.0029 O.2         1 MOL      -0.3944
     16 CB        -30.3288   42.8878   32.6658 C.3         1 MOL       0.0400
     17 CG        -30.5744   41.6990   33.5259 C.ar        1 MOL      -0.0004
     18 CD1       -30.9674   40.4663   32.9526 C.ar        1 MOL      -0.0239
     19 CD2       -30.4007   41.7652   34.9322 C.ar        1 MOL      -0.0239
     20 CE1       -31.1573   39.3299   33.7548 C.ar        1 MOL       0.0115
     21 CE2       -30.5974   40.6270   35.7357 C.ar        1 MOL       0.0115
     22 CZ        -30.9422   39.3924   35.1475 C.ar        1 MOL       0.1728
     23 OH        -31.1553   38.2673   35.8998 O.3         1 MOL      -0.2040
     24 P         -29.8552   37.6178   36.4582 P.3         1 MOL       0.1348
     25 O1P       -30.0311   36.1890   36.3592 O.co2       1 MOL      -0.6653
     26 O2P       -29.6759   37.9112   37.8604 O.co2       1 MOL      -0.6653
     27 O3P       -28.6537   37.9320   35.7269 O.co2       1 MOL      -0.6653
     28 N         -28.2951   45.2080   31.8181 N.am        1 MOL      -0.2712
     29 CA        -28.1408   46.5790   31.3545 C.3         1 MOL       0.1461
     30 CH3       -29.3127   46.8850   30.3552 C.3         1 MOL      -0.0287
     31 C         -26.8569   46.7903   30.6505 C.2         1 MOL       0.2294
     32 O         -25.9709   45.9390   30.6987 O.2         1 MOL      -0.3416
     33 CB        -28.1930   47.4828   32.6715 C.3         1 MOL       0.0325
     34 CG        -29.0934   48.6762   32.6600 C.ar        1 MOL      -0.0034
     35 CD1       -30.4801   48.5210   32.9131 C.ar        1 MOL      -0.0242
     36 CD2       -28.6064   49.9755   32.3667 C.ar        1 MOL      -0.0242
     37 CE1       -31.3560   49.6226   32.8509 C.ar        1 MOL       0.0115
     38 CE2       -29.4853   51.0726   32.2765 C.ar        1 MOL       0.0115
     39 CZ        -30.8682   50.8960   32.4888 C.ar        1 MOL       0.1728
     40 OH        -31.7231   51.9622   32.4423 O.3         1 MOL      -0.2040
     41 P         -32.4884   52.1270   31.0980 P.3         1 MOL       0.1348
     42 O1P       -32.6286   50.9521   30.2722 O.co2       1 MOL      -0.6653
     43 O2P       -31.8121   53.1637   30.3559 O.co2       1 MOL      -0.6653
     44 O3P       -33.8074   52.6316   31.3963 O.co2       1 MOL      -0.6653
     45 N         -26.6644   47.9058   29.9525 N.am        1 MOL      -0.2663
     46 CA        -25.6021   48.2779   29.0547 C.3         1 MOL       0.1112
     47 C         -26.0979   48.1180   27.6696 C.2         1 MOL       0.0626
     48 O         -25.7795   49.0233   26.7125 O.co2       1 MOL      -0.5664
     49 CB        -24.1854   47.6411   29.2427 C.3         1 MOL       0.0720
     50 CG        -23.5778   47.9427   30.5290 C.2         1 MOL       0.1774
     51 OD1       -23.8798   47.3030   31.5259 O.2         1 MOL      -0.3971
     52 ND2       -22.6631   48.8849   30.6558 N.am        1 MOL      -0.3007
     53 OXT       -26.9211   47.0993   27.3193 O.co2       1 MOL      -0.5664
     54 H1        -24.5673   38.5162   30.4208 H           1 MOL       0.0566
     55 H2        -25.4041   39.5977   32.4097 H           1 MOL       0.0448
     56 H3        -22.1518   42.2795   32.3100 H           1 MOL       0.0451
     57 H4        -22.5356   39.2995   29.3621 H           1 MOL       0.0459
     58 H5        -23.8938   42.7126   33.8904 H           1 MOL       0.0774
     59 H6        -24.2161   41.1322   34.6027 H           1 MOL       0.0774
     60 H7        -20.4955   41.9383   30.6933 H           1 MOL       0.1718
     61 H8        -20.6566   40.8393   29.4296 H           1 MOL       0.1718
     62 H9        -28.1524   42.6048   33.8410 H           1 MOL       0.1902
     63 H10       -28.9077   42.0386   31.2706 H           1 MOL       0.0839
     64 H11       -31.1160   42.9292   31.9064 H           1 MOL       0.0584
     65 H12       -30.4313   43.8020   33.2669 H           1 MOL       0.0584
     66 H13       -31.1173   40.3923   31.9431 H           1 MOL       0.0703
     67 H14       -30.1270   42.6433   35.3798 H           1 MOL       0.0703
     68 H15       -31.4430   38.4474   33.3234 H           1 MOL       0.0736
     69 H16       -30.4722   40.6940   36.7475 H           1 MOL       0.0736
     70 H17       -28.0621   45.0595   32.7489 H           1 MOL       0.1842
     71 H18       -29.3222   47.9424   30.0626 H           1 MOL       0.0244
     72 H19       -30.2745   46.6365   30.8117 H           1 MOL       0.0244
     73 H20       -29.2102   46.3045   29.4342 H           1 MOL       0.0244
     74 H21       -27.1860   47.8157   32.9425 H           1 MOL       0.0549
     75 H22       -28.5108   46.8902   33.5353 H           1 MOL       0.0549
     76 H23       -30.8663   47.6047   33.1448 H           1 MOL       0.0703
     77 H24       -27.6121   50.1277   32.2047 H           1 MOL       0.0703
     78 H25       -32.3504   49.4932   33.0484 H           1 MOL       0.0736
     79 H26       -29.1196   51.9970   32.0353 H           1 MOL       0.0736
     80 H27       -27.3941   48.5429   29.9854 H           1 MOL       0.1883
     81 H28       -25.4670   49.3583   29.2134 H           1 MOL       0.0754
     82 H29       -23.5383   48.0160   28.4419 H           1 MOL       0.0544
     83 H30       -24.2274   46.5521   29.1201 H           1 MOL       0.0544
     84 H31       -22.2543   49.0399   31.5205 H           1 MOL       0.1814
     85 H32       -22.4118   49.4298   29.8938 H           1 MOL       0.1814
@<TRIPOS>BOND
     1     1     5  ar
     2     2     1  ar
     3     3     2  ar
     4     6     3   1
     5     3     4  ar
     6     4    11  ar
     7    11    10   1
     8    11     5  ar
     9     7     6   1
    10     8     7   1
    11     8     9   2
    12    13    12   1
    13    13    16   1
    14    14    13   1
    15    14    15   2
    16    16    17   1
    17    17    19  ar
    18    17    18  ar
    19    18    20  ar
    20    20    22  ar
    21    22    23   1
    22    21    22  ar
    23    19    21  ar
    24    23    24   1
    25    24    27  ar
    26    24    26  ar
    27    24    25  ar
    28    29    28   1
    29    29    33   1
    30    31    29   1
    31    29    30   1
    32    31    32   2
    33    33    34   1
    34    34    36  ar
    35    34    35  ar
    36    35    37  ar
    37    37    39  ar
    38    39    40   1
    39    38    39  ar
    40    36    38  ar
    41    40    41   1
    42    41    44  ar
    43    41    43  ar
    44    41    42  ar
    45    46    47   1
    46    46    49   1
    47    45    46   1
    48    49    50   1
    49    50    51   2
    50    50    52  am
    51    47    53  ar
    52    47    48  ar
    53    28    14  am
    54    12     8  am
    55    31    45  am
    56     1    54   1
    57     2    55   1
    58     4    56   1
    59     5    57   1
    60     6    58   1
    61     6    59   1
    62    10    60   1
    63    10    61   1
    64    12    62   1
    65    13    63   1
    66    16    64   1
    67    16    65   1
    68    18    66   1
    69    19    67   1
    70    20    68   1
    71    21    69   1
    72    28    70   1
    73    30    71   1
    74    30    72   1
    75    30    73   1
    76    33    74   1
    77    33    75   1
    78    35    76   1
    79    36    77   1
    80    37    78   1
    81    38    79   1
    82    45    80   1
    83    46    81   1
    84    49    82   1
    85    49    83   1
    86    52    84   1
    87    52    85   1
@<TRIPOS>SUBSTRUCTURE
     1  MOL      1

