@<TRIPOS>MOLECULE
1jyq_ligand_055
    85    87
SMALL
GAST_HUCK
****
This file was generated by PARSER (from files_GN.cpp)

@<TRIPOS>ATOM
      1 C1        -32.6825   48.4213   43.1345 C.ar        1 MOL      -0.0801
      2 C2        -32.5039   48.4183   41.7411 C.ar        1 MOL      -0.0711
      3 C3        -33.5890   48.1680   40.8699 C.ar        1 MOL      -0.0250
      4 C4        -34.8766   47.9763   41.4356 C.ar        1 MOL      -0.0414
      5 C6        -33.9637   48.2169   43.6828 C.ar        1 MOL      -0.0516
      6 C12       -33.4076   48.1350   39.3942 C.3         1 MOL       0.1084
      7 O13       -32.1211   47.5947   39.0476 O.3         1 MOL      -0.2508
      8 C16       -31.6852   47.2081   37.8127 C.2         1 MOL       0.3241
      9 O18       -32.4750   47.2474   36.7035 O.2         1 MOL      -0.3773
     10 N11       -36.2973   47.8384   43.3419 N.pl3       1 MOL      -0.3383
     11 C5        -35.0591   48.0020   42.8306 C.ar        1 MOL       0.0282
     12 N         -30.4069   46.7603   37.7562 N.am        1 MOL      -0.2380
     13 CA        -29.7071   46.2524   36.6097 C.3         1 MOL       0.1484
     14 C         -28.9897   47.3287   35.9257 C.2         1 MOL       0.2046
     15 O         -29.2711   47.6284   34.7761 O.2         1 MOL      -0.3944
     16 CB        -30.6079   45.3608   35.6900 C.3         1 MOL       0.0400
     17 CG        -31.2259   44.1866   36.3763 C.ar        1 MOL      -0.0004
     18 CD1       -30.4203   43.1467   36.9055 C.ar        1 MOL      -0.0239
     19 CD2       -32.6340   44.0717   36.4764 C.ar        1 MOL      -0.0239
     20 CE1       -31.0093   42.0251   37.5161 C.ar        1 MOL       0.0115
     21 CE2       -33.2186   42.9488   37.0892 C.ar        1 MOL       0.0115
     22 CZ        -32.4134   41.9035   37.5840 C.ar        1 MOL       0.1728
     23 OH        -32.9838   40.8142   38.1865 O.3         1 MOL      -0.2040
     24 P         -33.2833   39.6393   37.2080 P.3         1 MOL       0.1348
     25 O1P       -32.0908   39.1066   36.6002 O.co2       1 MOL      -0.6653
     26 O2P       -34.2332   39.9993   36.1829 O.co2       1 MOL      -0.6653
     27 O3P       -33.8773   38.5714   37.9744 O.co2       1 MOL      -0.6653
     28 N         -28.0475   47.9633   36.6170 N.am        1 MOL      -0.2712
     29 CA        -27.1088   49.0128   36.2788 C.3         1 MOL       0.1461
     30 CH3       -26.4286   49.3115   37.6606 C.3         1 MOL      -0.0287
     31 C         -27.7929   50.2088   35.7368 C.2         1 MOL       0.2294
     32 O         -28.2546   50.1716   34.5983 O.2         1 MOL      -0.3416
     33 CB        -25.9487   48.4887   35.3448 C.3         1 MOL       0.0325
     34 CG        -26.1270   48.5307   33.8697 C.ar        1 MOL      -0.0034
     35 CD1       -26.5971   47.4073   33.1503 C.ar        1 MOL      -0.0242
     36 CD2       -25.7442   49.6791   33.1321 C.ar        1 MOL      -0.0242
     37 CE1       -26.7231   47.4397   31.7439 C.ar        1 MOL       0.0115
     38 CE2       -25.8139   49.6992   31.7275 C.ar        1 MOL       0.0115
     39 CZ        -26.2765   48.5669   31.0183 C.ar        1 MOL       0.1728
     40 OH        -26.3653   48.6212   29.6563 O.3         1 MOL      -0.2040
     41 P         -25.6267   47.4893   28.8936 P.3         1 MOL       0.1348
     42 O1P       -24.9088   46.5128   29.6807 O.co2       1 MOL      -0.6653
     43 O2P       -24.7513   48.0332   27.8822 O.co2       1 MOL      -0.6653
     44 O3P       -26.6550   46.7782   28.1726 O.co2       1 MOL      -0.6653
     45 N         -27.9237   51.3486   36.4123 N.am        1 MOL      -0.2663
     46 CA        -28.6495   52.5193   36.0038 C.3         1 MOL       0.1112
     47 C         -27.9703   53.7444   36.4711 C.2         1 MOL       0.0626
     48 O         -28.1411   54.9052   35.7951 O.co2       1 MOL      -0.5664
     49 CB        -30.1624   52.4941   36.4237 C.3         1 MOL       0.0720
     50 CG        -30.5030   51.6239   37.5364 C.2         1 MOL       0.1774
     51 OD1       -31.3797   50.7745   37.4199 O.2         1 MOL      -0.3971
     52 ND2       -29.8839   51.6977   38.6989 N.am        1 MOL      -0.3007
     53 OXT       -27.1868   53.7607   37.5782 O.co2       1 MOL      -0.5664
     54 H1        -31.8892   48.5805   43.7522 H           1 MOL       0.0566
     55 H2        -31.5704   48.5779   41.3603 H           1 MOL       0.0448
     56 H3        -35.6886   47.8156   40.8264 H           1 MOL       0.0451
     57 H4        -34.0883   48.2268   44.6950 H           1 MOL       0.0459
     58 H5        -33.4815   49.1550   39.0033 H           1 MOL       0.0774
     59 H6        -34.1888   47.5280   38.9174 H           1 MOL       0.0774
     60 H7        -37.0562   47.7002   42.7506 H           1 MOL       0.1718
     61 H8        -36.4378   47.8643   44.3008 H           1 MOL       0.1718
     62 H9        -29.8834   46.8248   38.5716 H           1 MOL       0.1902
     63 H10       -28.9425   45.5765   37.0030 H           1 MOL       0.0839
     64 H11       -30.0052   44.9750   34.8531 H           1 MOL       0.0584
     65 H12       -31.3886   46.0026   35.2568 H           1 MOL       0.0584
     66 H13       -29.4037   43.2105   36.8420 H           1 MOL       0.0703
     67 H14       -33.2449   44.8111   36.1105 H           1 MOL       0.0703
     68 H15       -30.4117   41.2918   37.8892 H           1 MOL       0.0736
     69 H16       -34.2376   42.8836   37.1586 H           1 MOL       0.0736
     70 H17       -27.9677   47.6498   37.5305 H           1 MOL       0.1842
     71 H18       -25.7134   50.1330   37.5909 H           1 MOL       0.0244
     72 H19       -25.8851   48.4346   38.0104 H           1 MOL       0.0244
     73 H20       -27.1731   49.5739   38.4187 H           1 MOL       0.0244
     74 H21       -25.7079   47.4642   35.6298 H           1 MOL       0.0549
     75 H22       -25.0403   49.0531   35.5597 H           1 MOL       0.0549
     76 H23       -26.8598   46.5532   33.6496 H           1 MOL       0.0703
     77 H24       -25.4011   50.5164   33.6082 H           1 MOL       0.0703
     78 H25       -27.0945   46.6256   31.2517 H           1 MOL       0.0736
     79 H26       -25.5063   50.5302   31.2084 H           1 MOL       0.0736
     80 H27       -27.5238   51.3908   37.2937 H           1 MOL       0.1883
     81 H28       -28.6004   52.5721   34.9151 H           1 MOL       0.0754
     82 H29       -30.7491   52.1889   35.5485 H           1 MOL       0.0544
     83 H30       -30.5057   53.5049   36.6791 H           1 MOL       0.0544
     84 H31       -30.1264   51.0889   39.4137 H           1 MOL       0.1814
     85 H32       -29.1702   52.3437   38.8314 H           1 MOL       0.1814
@<TRIPOS>BOND
     1     1     5  ar
     2     2     1  ar
     3     3     2  ar
     4     6     3   1
     5     3     4  ar
     6     4    11  ar
     7    11    10   1
     8    11     5  ar
     9     7     6   1
    10     8     7   1
    11     8     9   2
    12    13    12   1
    13    13    16   1
    14    14    13   1
    15    14    15   2
    16    16    17   1
    17    17    19  ar
    18    17    18  ar
    19    18    20  ar
    20    20    22  ar
    21    22    23   1
    22    21    22  ar
    23    19    21  ar
    24    23    24   1
    25    24    27  ar
    26    24    26  ar
    27    24    25  ar
    28    29    28   1
    29    29    33   1
    30    31    29   1
    31    29    30   1
    32    31    32   2
    33    33    34   1
    34    34    36  ar
    35    34    35  ar
    36    35    37  ar
    37    37    39  ar
    38    39    40   1
    39    38    39  ar
    40    36    38  ar
    41    40    41   1
    42    41    44  ar
    43    41    43  ar
    44    41    42  ar
    45    46    47   1
    46    46    49   1
    47    45    46   1
    48    49    50   1
    49    50    51   2
    50    50    52  am
    51    47    53  ar
    52    47    48  ar
    53    28    14  am
    54    12     8  am
    55    31    45  am
    56     1    54   1
    57     2    55   1
    58     4    56   1
    59     5    57   1
    60     6    58   1
    61     6    59   1
    62    10    60   1
    63    10    61   1
    64    12    62   1
    65    13    63   1
    66    16    64   1
    67    16    65   1
    68    18    66   1
    69    19    67   1
    70    20    68   1
    71    21    69   1
    72    28    70   1
    73    30    71   1
    74    30    72   1
    75    30    73   1
    76    33    74   1
    77    33    75   1
    78    35    76   1
    79    36    77   1
    80    37    78   1
    81    38    79   1
    82    45    80   1
    83    46    81   1
    84    49    82   1
    85    49    83   1
    86    52    84   1
    87    52    85   1
@<TRIPOS>SUBSTRUCTURE
     1  MOL      1

