@<TRIPOS>MOLECULE
1jyq_ligand_031
    85    87
SMALL
GAST_HUCK
****
This file was generated by PARSER (from files_GN.cpp)

@<TRIPOS>ATOM
      1 C1        -23.8299   38.5838   31.9951 C.ar        1 MOL      -0.0801
      2 C2        -23.8503   39.6533   32.9058 C.ar        1 MOL      -0.0711
      3 C3        -23.2227   40.8794   32.5949 C.ar        1 MOL      -0.0250
      4 C4        -22.5550   41.0038   31.3513 C.ar        1 MOL      -0.0414
      5 C6        -23.1643   38.7181   30.7636 C.ar        1 MOL      -0.0516
      6 C12       -23.2987   42.0338   33.5288 C.3         1 MOL       0.1084
      7 O13       -24.2915   43.0350   33.2318 O.3         1 MOL      -0.2508
      8 C16       -25.3198   43.0731   32.3398 C.2         1 MOL       0.3241
      9 O18       -25.5855   42.0187   31.5227 O.2         1 MOL      -0.3773
     10 N11       -21.9016   40.0662   29.2532 N.pl3       1 MOL      -0.3383
     11 C5        -22.5212   39.9295   30.4351 C.ar        1 MOL       0.0282
     12 N         -26.1341   44.1541   32.3426 N.am        1 MOL      -0.2380
     13 CA        -27.3566   44.2790   31.5829 C.3         1 MOL       0.1484
     14 C         -27.6062   45.6596   31.1591 C.2         1 MOL       0.2046
     15 O         -27.8557   45.8726   29.9729 O.2         1 MOL      -0.3944
     16 CB        -28.5751   43.7492   32.4095 C.3         1 MOL       0.0400
     17 CG        -28.6254   42.2647   32.5612 C.ar        1 MOL      -0.0004
     18 CD1       -28.6611   41.4342   31.4180 C.ar        1 MOL      -0.0239
     19 CD2       -28.6243   41.6524   33.8382 C.ar        1 MOL      -0.0239
     20 CE1       -28.6984   40.0345   31.5424 C.ar        1 MOL       0.0115
     21 CE2       -28.6851   40.2505   33.9621 C.ar        1 MOL       0.0115
     22 CZ        -28.7262   39.4300   32.8166 C.ar        1 MOL       0.1728
     23 OH        -28.7027   38.0675   32.9317 O.3         1 MOL      -0.2040
     24 P         -30.1141   37.4029   32.9487 P.3         1 MOL       0.1348
     25 O1P       -29.9135   35.9780   33.0469 O.co2       1 MOL      -0.6653
     26 O2P       -30.8648   37.6364   31.7381 O.co2       1 MOL      -0.6653
     27 O3P       -30.8954   37.8002   34.0937 O.co2       1 MOL      -0.6653
     28 N         -27.7121   46.6348   32.0600 N.am        1 MOL      -0.2712
     29 CA        -28.1516   48.0235   31.9042 C.3         1 MOL       0.1461
     30 CH3       -29.6204   48.0153   31.3502 C.3         1 MOL      -0.0287
     31 C         -27.3233   48.8118   30.9598 C.2         1 MOL       0.2294
     32 O         -27.4853   50.0343   30.9217 O.2         1 MOL      -0.3416
     33 CB        -28.1244   48.7176   33.3404 C.3         1 MOL       0.0325
     34 CG        -28.0845   47.8423   34.5581 C.ar        1 MOL      -0.0034
     35 CD1       -26.9416   47.8141   35.3917 C.ar        1 MOL      -0.0242
     36 CD2       -29.1643   46.9919   34.8924 C.ar        1 MOL      -0.0242
     37 CE1       -26.8622   46.9266   36.4791 C.ar        1 MOL       0.0115
     38 CE2       -29.0707   46.0820   35.9635 C.ar        1 MOL       0.0115
     39 CZ        -27.9145   46.0379   36.7796 C.ar        1 MOL       0.1728
     40 OH        -27.6494   45.1905   37.8392 O.3         1 MOL      -0.2040
     41 P         -28.5635   44.0079   38.2606 P.3         1 MOL       0.1348
     42 O1P       -29.8488   44.4466   38.7556 O.co2       1 MOL      -0.6653
     43 O2P       -27.9030   43.3009   39.3313 O.co2       1 MOL      -0.6653
     44 O3P       -28.7251   43.0656   37.1853 O.co2       1 MOL      -0.6653
     45 N         -26.4458   48.2391   30.1278 N.am        1 MOL      -0.2663
     46 CA        -25.6616   48.8579   29.0934 C.3         1 MOL       0.1112
     47 C         -26.1399   48.3806   27.7696 C.2         1 MOL       0.0626
     48 O         -26.8118   47.2107   27.6177 O.co2       1 MOL      -0.5664
     49 CB        -24.1631   48.4836   29.3200 C.3         1 MOL       0.0720
     50 CG        -23.4767   49.2144   30.3786 C.2         1 MOL       0.1774
     51 OD1       -23.9542   50.2036   30.9203 O.2         1 MOL      -0.3971
     52 ND2       -22.2742   48.8326   30.7586 N.am        1 MOL      -0.3007
     53 OXT       -25.7995   49.0647   26.6554 O.co2       1 MOL      -0.5664
     54 H1        -24.3064   37.7104   32.2280 H           1 MOL       0.0566
     55 H2        -24.3599   39.5460   33.7861 H           1 MOL       0.0448
     56 H3        -22.1027   41.8854   31.1013 H           1 MOL       0.0451
     57 H4        -23.1471   37.9322   30.1102 H           1 MOL       0.0459
     58 H5        -22.3289   42.5266   33.5780 H           1 MOL       0.0774
     59 H6        -23.5061   41.6782   34.5373 H           1 MOL       0.0774
     60 H7        -21.4723   40.9071   29.0206 H           1 MOL       0.1718
     61 H8        -21.8807   39.3297   28.6185 H           1 MOL       0.1718
     62 H9        -25.9411   44.8560   32.9948 H           1 MOL       0.1902
     63 H10       -27.2804   43.6808   30.6713 H           1 MOL       0.0839
     64 H11       -29.5092   44.0439   31.9183 H           1 MOL       0.0584
     65 H12       -28.5668   44.2397   33.3906 H           1 MOL       0.0584
     66 H13       -28.6887   41.8457   30.4808 H           1 MOL       0.0703
     67 H14       -28.5993   42.2223   34.6873 H           1 MOL       0.0703
     68 H15       -28.6961   39.4549   30.7012 H           1 MOL       0.0736
     69 H16       -28.6982   39.8243   34.8921 H           1 MOL       0.0736
     70 H17       -27.5186   46.3658   32.9752 H           1 MOL       0.1842
     71 H18       -30.0589   49.0148   31.3810 H           1 MOL       0.0244
     72 H19       -30.2486   47.3413   31.9345 H           1 MOL       0.0244
     73 H20       -29.6547   47.6759   30.3114 H           1 MOL       0.0244
     74 H21       -28.9933   49.3700   33.4525 H           1 MOL       0.0549
     75 H22       -27.2634   49.3932   33.3877 H           1 MOL       0.0549
     76 H23       -26.1432   48.4267   35.2033 H           1 MOL       0.0703
     77 H24       -30.0111   46.9902   34.3309 H           1 MOL       0.0703
     78 H25       -26.0183   46.9315   37.0552 H           1 MOL       0.0736
     79 H26       -29.8634   45.4658   36.1446 H           1 MOL       0.0736
     80 H27       -26.3700   47.2701   30.1942 H           1 MOL       0.1883
     81 H28       -25.7703   49.9550   29.0977 H           1 MOL       0.0754
     82 H29       -23.6139   48.6536   28.3871 H           1 MOL       0.0544
     83 H30       -24.1076   47.4104   29.5496 H           1 MOL       0.0544
     84 H31       -21.8021   49.3361   31.4427 H           1 MOL       0.1814
     85 H32       -21.8669   48.0321   30.3753 H           1 MOL       0.1814
@<TRIPOS>BOND
     1     1     5  ar
     2     2     1  ar
     3     3     2  ar
     4     6     3   1
     5     3     4  ar
     6     4    11  ar
     7    11    10   1
     8    11     5  ar
     9     7     6   1
    10     8     7   1
    11     8     9   2
    12    13    12   1
    13    13    16   1
    14    14    13   1
    15    14    15   2
    16    16    17   1
    17    17    19  ar
    18    17    18  ar
    19    18    20  ar
    20    20    22  ar
    21    22    23   1
    22    21    22  ar
    23    19    21  ar
    24    23    24   1
    25    24    27  ar
    26    24    26  ar
    27    24    25  ar
    28    29    28   1
    29    29    33   1
    30    31    29   1
    31    29    30   1
    32    31    32   2
    33    33    34   1
    34    34    36  ar
    35    34    35  ar
    36    35    37  ar
    37    37    39  ar
    38    39    40   1
    39    38    39  ar
    40    36    38  ar
    41    40    41   1
    42    41    44  ar
    43    41    43  ar
    44    41    42  ar
    45    46    47   1
    46    46    49   1
    47    45    46   1
    48    49    50   1
    49    50    51   2
    50    50    52  am
    51    47    53  ar
    52    47    48  ar
    53    28    14  am
    54    12     8  am
    55    31    45  am
    56     1    54   1
    57     2    55   1
    58     4    56   1
    59     5    57   1
    60     6    58   1
    61     6    59   1
    62    10    60   1
    63    10    61   1
    64    12    62   1
    65    13    63   1
    66    16    64   1
    67    16    65   1
    68    18    66   1
    69    19    67   1
    70    20    68   1
    71    21    69   1
    72    28    70   1
    73    30    71   1
    74    30    72   1
    75    30    73   1
    76    33    74   1
    77    33    75   1
    78    35    76   1
    79    36    77   1
    80    37    78   1
    81    38    79   1
    82    45    80   1
    83    46    81   1
    84    49    82   1
    85    49    83   1
    86    52    84   1
    87    52    85   1
@<TRIPOS>SUBSTRUCTURE
     1  MOL      1

