@<TRIPOS>MOLECULE
1jyq_ligand_069
    85    87
SMALL
GAST_HUCK
****
This file was generated by PARSER (from files_GN.cpp)

@<TRIPOS>ATOM
      1 C1        -31.7694   44.5201   44.1082 C.ar        1 MOL      -0.0801
      2 C2        -31.4490   45.6986   43.4083 C.ar        1 MOL      -0.0711
      3 C3        -32.4719   46.5463   42.9203 C.ar        1 MOL      -0.0250
      4 C4        -33.8190   46.1971   43.1672 C.ar        1 MOL      -0.0414
      5 C6        -33.1139   44.1772   44.3365 C.ar        1 MOL      -0.0516
      6 C12       -32.1185   47.7551   42.1357 C.3         1 MOL       0.1084
      7 O13       -31.3837   47.3585   40.9666 O.3         1 MOL      -0.2508
      8 C16       -31.8331   47.1672   39.6955 C.2         1 MOL       0.3241
      9 O18       -33.1411   47.3465   39.3821 O.2         1 MOL      -0.3773
     10 N11       -35.4307   44.6957   44.0888 N.pl3       1 MOL      -0.3383
     11 C5        -34.1447   45.0175   43.8707 C.ar        1 MOL       0.0282
     12 N         -30.9209   46.7274   38.7976 N.am        1 MOL      -0.2380
     13 CA        -31.1001   46.3719   37.4151 C.3         1 MOL       0.1484
     14 C         -30.4903   47.4097   36.5814 C.2         1 MOL       0.2046
     15 O         -31.1302   47.9659   35.6976 O.2         1 MOL      -0.3944
     16 CB        -32.5640   45.9118   37.0740 C.3         1 MOL       0.0400
     17 CG        -32.6748   45.0249   35.8745 C.ar        1 MOL      -0.0004
     18 CD1       -32.6566   45.5621   34.5672 C.ar        1 MOL      -0.0239
     19 CD2       -32.8364   43.6250   36.0220 C.ar        1 MOL      -0.0239
     20 CE1       -32.7643   44.7238   33.4399 C.ar        1 MOL       0.0115
     21 CE2       -32.9566   42.7893   34.8957 C.ar        1 MOL       0.0115
     22 CZ        -32.8899   43.3299   33.5955 C.ar        1 MOL       0.1728
     23 OH        -33.0215   42.5518   32.4754 O.3         1 MOL      -0.2040
     24 P         -31.7007   41.9239   31.9729 P.3         1 MOL       0.1348
     25 O1P       -31.2835   40.7942   32.7921 O.co2       1 MOL      -0.6653
     26 O2P       -30.5988   42.8561   31.8549 O.co2       1 MOL      -0.6653
     27 O3P       -31.9348   41.3969   30.6422 O.co2       1 MOL      -0.6653
     28 N         -29.2480   47.7929   36.8683 N.am        1 MOL      -0.2712
     29 CA        -28.4324   48.8634   36.3174 C.3         1 MOL       0.1461
     30 CH3       -26.9936   48.5608   36.8612 C.3         1 MOL      -0.0287
     31 C         -28.8547   50.1995   36.8120 C.2         1 MOL       0.2294
     32 O         -29.8640   50.3198   37.4962 O.2         1 MOL      -0.3416
     33 CB        -28.4200   48.8547   34.7403 C.3         1 MOL       0.0325
     34 CG        -27.9971   47.5764   34.0830 C.ar        1 MOL      -0.0034
     35 CD1       -28.9060   46.5016   33.9527 C.ar        1 MOL      -0.0242
     36 CD2       -26.7049   47.4330   33.5224 C.ar        1 MOL      -0.0242
     37 CE1       -28.5277   45.3124   33.3024 C.ar        1 MOL       0.0115
     38 CE2       -26.3277   46.2418   32.8714 C.ar        1 MOL       0.0115
     39 CZ        -27.2288   45.1609   32.7817 C.ar        1 MOL       0.1728
     40 OH        -26.9122   44.0112   32.1069 O.3         1 MOL      -0.2040
     41 P         -25.9138   43.0782   32.8422 P.3         1 MOL       0.1348
     42 O1P       -25.6712   41.9282   31.9968 O.co2       1 MOL      -0.6653
     43 O2P       -26.4001   42.5585   34.1011 O.co2       1 MOL      -0.6653
     44 O3P       -24.6290   43.7134   33.0434 O.co2       1 MOL      -0.6653
     45 N         -28.0979   51.2735   36.6024 N.am        1 MOL      -0.2663
     46 CA        -28.3064   52.6187   37.0688 C.3         1 MOL       0.1112
     47 C         -27.7263   53.5523   36.0614 C.2         1 MOL       0.0626
     48 O         -27.7497   53.2277   34.7468 O.co2       1 MOL      -0.5664
     49 CB        -27.6646   52.8191   38.4804 C.3         1 MOL       0.0720
     50 CG        -28.2233   51.9874   39.5401 C.2         1 MOL       0.1774
     51 OD1       -28.4894   50.8061   39.3190 O.2         1 MOL      -0.3971
     52 ND2       -28.4152   52.4150   40.7651 N.am        1 MOL      -0.3007
     53 OXT       -27.5948   54.8717   36.3279 O.co2       1 MOL      -0.5664
     54 H1        -31.0218   43.9076   44.4457 H           1 MOL       0.0566
     55 H2        -30.4656   45.9277   43.2471 H           1 MOL       0.0448
     56 H3        -34.5750   46.7982   42.8274 H           1 MOL       0.0451
     57 H4        -33.3363   43.3167   44.8428 H           1 MOL       0.0459
     58 H5        -31.4845   48.4093   42.7385 H           1 MOL       0.0774
     59 H6        -33.0086   48.3282   41.8591 H           1 MOL       0.0774
     60 H7        -36.1394   45.2767   43.7657 H           1 MOL       0.1718
     61 H8        -35.6578   43.8847   44.5700 H           1 MOL       0.1718
     62 H9        -30.0073   46.6876   39.1219 H           1 MOL       0.1902
     63 H10       -30.4767   45.4802   37.2827 H           1 MOL       0.0839
     64 H11       -33.2163   46.7729   36.9344 H           1 MOL       0.0584
     65 H12       -32.9528   45.3710   37.9381 H           1 MOL       0.0584
     66 H13       -32.5791   46.5694   34.4237 H           1 MOL       0.0703
     67 H14       -32.8678   43.1989   36.9514 H           1 MOL       0.0703
     68 H15       -32.7552   45.1370   32.5042 H           1 MOL       0.0736
     69 H16       -33.0839   41.7816   35.0238 H           1 MOL       0.0736
     70 H17       -28.8520   47.3246   37.6248 H           1 MOL       0.1842
     71 H18       -26.2497   49.2379   36.4343 H           1 MOL       0.0244
     72 H19       -26.6842   47.5403   36.6189 H           1 MOL       0.0244
     73 H20       -26.9578   48.6613   37.9500 H           1 MOL       0.0244
     74 H21       -27.7615   49.6551   34.3884 H           1 MOL       0.0549
     75 H22       -29.4148   49.1251   34.3778 H           1 MOL       0.0549
     76 H23       -29.8575   46.5841   34.3131 H           1 MOL       0.0703
     77 H24       -26.0291   48.1996   33.5774 H           1 MOL       0.0703
     78 H25       -29.2060   44.5586   33.2071 H           1 MOL       0.0736
     79 H26       -25.3948   46.1632   32.4651 H           1 MOL       0.0736
     80 H27       -27.2644   51.1197   36.1251 H           1 MOL       0.1883
     81 H28       -29.3731   52.8499   37.1426 H           1 MOL       0.0754
     82 H29       -27.7745   53.8708   38.7721 H           1 MOL       0.0544
     83 H30       -26.5886   52.6148   38.4119 H           1 MOL       0.0544
     84 H31       -28.7818   51.8076   41.4323 H           1 MOL       0.1814
     85 H32       -28.1316   53.3052   41.0332 H           1 MOL       0.1814
@<TRIPOS>BOND
     1     1     5  ar
     2     2     1  ar
     3     3     2  ar
     4     6     3   1
     5     3     4  ar
     6     4    11  ar
     7    11    10   1
     8    11     5  ar
     9     7     6   1
    10     8     7   1
    11     8     9   2
    12    13    12   1
    13    13    16   1
    14    14    13   1
    15    14    15   2
    16    16    17   1
    17    17    19  ar
    18    17    18  ar
    19    18    20  ar
    20    20    22  ar
    21    22    23   1
    22    21    22  ar
    23    19    21  ar
    24    23    24   1
    25    24    27  ar
    26    24    26  ar
    27    24    25  ar
    28    29    28   1
    29    29    33   1
    30    31    29   1
    31    29    30   1
    32    31    32   2
    33    33    34   1
    34    34    36  ar
    35    34    35  ar
    36    35    37  ar
    37    37    39  ar
    38    39    40   1
    39    38    39  ar
    40    36    38  ar
    41    40    41   1
    42    41    44  ar
    43    41    43  ar
    44    41    42  ar
    45    46    47   1
    46    46    49   1
    47    45    46   1
    48    49    50   1
    49    50    51   2
    50    50    52  am
    51    47    53  ar
    52    47    48  ar
    53    28    14  am
    54    12     8  am
    55    31    45  am
    56     1    54   1
    57     2    55   1
    58     4    56   1
    59     5    57   1
    60     6    58   1
    61     6    59   1
    62    10    60   1
    63    10    61   1
    64    12    62   1
    65    13    63   1
    66    16    64   1
    67    16    65   1
    68    18    66   1
    69    19    67   1
    70    20    68   1
    71    21    69   1
    72    28    70   1
    73    30    71   1
    74    30    72   1
    75    30    73   1
    76    33    74   1
    77    33    75   1
    78    35    76   1
    79    36    77   1
    80    37    78   1
    81    38    79   1
    82    45    80   1
    83    46    81   1
    84    49    82   1
    85    49    83   1
    86    52    84   1
    87    52    85   1
@<TRIPOS>SUBSTRUCTURE
     1  MOL      1

