@<TRIPOS>MOLECULE
1jyq_ligand_035
    85    87
SMALL
GAST_HUCK
****
This file was generated by PARSER (from files_GN.cpp)

@<TRIPOS>ATOM
      1 C1        -28.8503   46.9442   31.8520 C.ar        1 MOL      -0.0801
      2 C2        -29.5508   46.4359   30.7437 C.ar        1 MOL      -0.0711
      3 C3        -29.1199   45.2538   30.0959 C.ar        1 MOL      -0.0250
      4 C4        -27.9695   44.5942   30.5924 C.ar        1 MOL      -0.0414
      5 C6        -27.7088   46.2781   32.3325 C.ar        1 MOL      -0.0516
      6 C12       -29.9005   44.7419   28.9378 C.3         1 MOL       0.1084
      7 O13       -29.4356   43.4707   28.4683 O.3         1 MOL      -0.2508
      8 C16       -30.0503   42.2633   28.5321 C.2         1 MOL       0.3241
      9 O18       -31.2788   42.1448   29.0869 O.2         1 MOL      -0.3773
     10 N11       -26.1684   44.4638   32.1517 N.pl3       1 MOL      -0.3383
     11 C5        -27.2624   45.1015   31.7019 C.ar        1 MOL       0.0282
     12 N         -29.3367   41.1965   28.1129 N.am        1 MOL      -0.2380
     13 CA        -29.7446   39.8260   28.1957 C.3         1 MOL       0.1484
     14 C         -28.8782   39.1510   29.1590 C.2         1 MOL       0.2046
     15 O         -28.2906   38.1239   28.8501 O.2         1 MOL      -0.3944
     16 CB        -29.8177   39.2015   26.7629 C.3         1 MOL       0.0400
     17 CG        -28.5340   39.2105   25.9991 C.ar        1 MOL      -0.0004
     18 CD1       -27.6984   38.0696   25.9677 C.ar        1 MOL      -0.0239
     19 CD2       -28.1355   40.3595   25.2753 C.ar        1 MOL      -0.0239
     20 CE1       -26.4850   38.0847   25.2595 C.ar        1 MOL       0.0115
     21 CE2       -26.9316   40.3674   24.5463 C.ar        1 MOL       0.0115
     22 CZ        -26.1091   39.2219   24.5142 C.ar        1 MOL       0.1728
     23 OH        -24.9161   39.2480   23.8452 O.3         1 MOL      -0.2040
     24 P         -25.0134   38.7519   22.3719 P.3         1 MOL       0.1348
     25 O1P       -23.6962   38.8933   21.8053 O.co2       1 MOL      -0.6653
     26 O2P       -25.9048   39.5461   21.5672 O.co2       1 MOL      -0.6653
     27 O3P       -25.3590   37.3550   22.2709 O.co2       1 MOL      -0.6653
     28 N         -28.7161   39.6736   30.3746 N.am        1 MOL      -0.2712
     29 CA        -27.8915   39.2062   31.4777 C.3         1 MOL       0.1461
     30 CH3       -28.0806   40.3033   32.5813 C.3         1 MOL      -0.0287
     31 C         -26.4556   39.1413   31.1198 C.2         1 MOL       0.2294
     32 O         -26.0842   39.3299   29.9689 O.2         1 MOL      -0.3416
     33 CB        -28.4783   37.8303   31.9816 C.3         1 MOL       0.0325
     34 CG        -27.7848   37.1413   33.1108 C.ar        1 MOL      -0.0034
     35 CD1       -28.1584   37.3632   34.4584 C.ar        1 MOL      -0.0242
     36 CD2       -26.7525   36.2095   32.8469 C.ar        1 MOL      -0.0242
     37 CE1       -27.5193   36.6731   35.5068 C.ar        1 MOL       0.0115
     38 CE2       -26.0967   35.5371   33.8941 C.ar        1 MOL       0.0115
     39 CZ        -26.4982   35.7381   35.2305 C.ar        1 MOL       0.1728
     40 OH        -25.8314   35.0985   36.2443 O.3         1 MOL      -0.2040
     41 P         -26.4721   33.7458   36.6710 P.3         1 MOL       0.1348
     42 O1P       -26.6333   32.8202   35.5751 O.co2       1 MOL      -0.6653
     43 O2P       -27.7400   33.9310   37.3339 O.co2       1 MOL      -0.6653
     44 O3P       -25.5886   33.1174   37.6234 O.co2       1 MOL      -0.6653
     45 N         -25.5331   38.9265   32.0524 N.am        1 MOL      -0.2663
     46 CA        -24.1129   38.8223   31.8655 C.3         1 MOL       0.1112
     47 C         -23.4990   38.4847   33.1721 C.2         1 MOL       0.0626
     48 O         -22.5108   37.5661   33.2766 O.co2       1 MOL      -0.5664
     49 CB        -23.4752   40.1240   31.2617 C.3         1 MOL       0.0720
     50 CG        -22.7882   39.8859   30.0040 C.2         1 MOL       0.1774
     51 OD1       -23.4287   39.7667   28.9700 O.2         1 MOL      -0.3971
     52 ND2       -21.4851   39.7278   29.9357 N.am        1 MOL      -0.3007
     53 OXT       -23.9931   39.0247   34.3090 O.co2       1 MOL      -0.5664
     54 H1        -29.1696   47.8010   32.3083 H           1 MOL       0.0566
     55 H2        -30.3783   46.9342   30.4107 H           1 MOL       0.0448
     56 H3        -27.6342   43.7347   30.1516 H           1 MOL       0.0451
     57 H4        -27.2042   46.6576   33.1395 H           1 MOL       0.0459
     58 H5        -29.8098   45.4413   28.1024 H           1 MOL       0.0774
     59 H6        -30.9549   44.6912   29.2237 H           1 MOL       0.0774
     60 H7        -25.8579   43.6587   31.7065 H           1 MOL       0.1718
     61 H8        -25.6927   44.8000   32.9300 H           1 MOL       0.1718
     62 H9        -28.4365   41.3689   27.7911 H           1 MOL       0.1902
     63 H10       -30.7575   39.7508   28.6059 H           1 MOL       0.0839
     64 H11       -30.5719   39.7381   26.1784 H           1 MOL       0.0584
     65 H12       -30.1904   38.1776   26.8543 H           1 MOL       0.0584
     66 H13       -27.9601   37.2222   26.4764 H           1 MOL       0.0703
     67 H14       -28.7246   41.1964   25.2714 H           1 MOL       0.0703
     68 H15       -25.8773   37.2628   25.2704 H           1 MOL       0.0736
     69 H16       -26.6591   41.2062   24.0291 H           1 MOL       0.0736
     70 H17       -29.2033   40.5004   30.5337 H           1 MOL       0.1842
     71 H18       -27.5589   40.0422   33.5018 H           1 MOL       0.0244
     72 H19       -29.1368   40.4313   32.8313 H           1 MOL       0.0244
     73 H20       -27.6943   41.2664   32.2356 H           1 MOL       0.0244
     74 H21       -28.5127   37.1202   31.1531 H           1 MOL       0.0549
     75 H22       -29.5276   37.9853   32.2551 H           1 MOL       0.0549
     76 H23       -28.8997   38.0310   34.6868 H           1 MOL       0.0703
     77 H24       -26.4575   36.0279   31.8840 H           1 MOL       0.0703
     78 H25       -27.8012   36.8441   36.4735 H           1 MOL       0.0736
     79 H26       -25.3371   34.8891   33.6779 H           1 MOL       0.0736
     80 H27       -25.8616   38.7967   32.9570 H           1 MOL       0.1883
     81 H28       -23.9401   37.9702   31.1993 H           1 MOL       0.0754
     82 H29       -22.7787   40.5832   31.9696 H           1 MOL       0.0544
     83 H30       -24.2454   40.8791   31.0834 H           1 MOL       0.0544
     84 H31       -21.0648   39.5386   29.0817 H           1 MOL       0.1814
     85 H32       -20.9420   39.7736   30.7363 H           1 MOL       0.1814
@<TRIPOS>BOND
     1     1     5  ar
     2     2     1  ar
     3     3     2  ar
     4     6     3   1
     5     3     4  ar
     6     4    11  ar
     7    11    10   1
     8    11     5  ar
     9     7     6   1
    10     8     7   1
    11     8     9   2
    12    13    12   1
    13    13    16   1
    14    14    13   1
    15    14    15   2
    16    16    17   1
    17    17    19  ar
    18    17    18  ar
    19    18    20  ar
    20    20    22  ar
    21    22    23   1
    22    21    22  ar
    23    19    21  ar
    24    23    24   1
    25    24    27  ar
    26    24    26  ar
    27    24    25  ar
    28    29    28   1
    29    29    33   1
    30    31    29   1
    31    29    30   1
    32    31    32   2
    33    33    34   1
    34    34    36  ar
    35    34    35  ar
    36    35    37  ar
    37    37    39  ar
    38    39    40   1
    39    38    39  ar
    40    36    38  ar
    41    40    41   1
    42    41    44  ar
    43    41    43  ar
    44    41    42  ar
    45    46    47   1
    46    46    49   1
    47    45    46   1
    48    49    50   1
    49    50    51   2
    50    50    52  am
    51    47    53  ar
    52    47    48  ar
    53    28    14  am
    54    12     8  am
    55    31    45  am
    56     1    54   1
    57     2    55   1
    58     4    56   1
    59     5    57   1
    60     6    58   1
    61     6    59   1
    62    10    60   1
    63    10    61   1
    64    12    62   1
    65    13    63   1
    66    16    64   1
    67    16    65   1
    68    18    66   1
    69    19    67   1
    70    20    68   1
    71    21    69   1
    72    28    70   1
    73    30    71   1
    74    30    72   1
    75    30    73   1
    76    33    74   1
    77    33    75   1
    78    35    76   1
    79    36    77   1
    80    37    78   1
    81    38    79   1
    82    45    80   1
    83    46    81   1
    84    49    82   1
    85    49    83   1
    86    52    84   1
    87    52    85   1
@<TRIPOS>SUBSTRUCTURE
     1  MOL      1

