@<TRIPOS>MOLECULE
1jyq_ligand_027
    85    87
SMALL
GAST_HUCK
****
This file was generated by PARSER (from files_GN.cpp)

@<TRIPOS>ATOM
      1 C1        -31.3400   40.4702   39.5868 C.ar        1 MOL      -0.0801
      2 C2        -30.9554   41.8184   39.6924 C.ar        1 MOL      -0.0711
      3 C3        -29.7294   42.1720   40.3044 C.ar        1 MOL      -0.0250
      4 C4        -28.9110   41.1447   40.8269 C.ar        1 MOL      -0.0414
      5 C6        -30.5193   39.4570   40.1158 C.ar        1 MOL      -0.0516
      6 C12       -29.3337   43.5928   40.4555 C.3         1 MOL       0.1084
      7 O13       -29.5139   44.3285   39.2393 O.3         1 MOL      -0.2508
      8 C16       -28.5699   44.7100   38.3420 C.2         1 MOL       0.3241
      9 O18       -27.2592   44.3979   38.5169 O.2         1 MOL      -0.3773
     10 N11       -28.5258   38.8411   41.2767 N.pl3       1 MOL      -0.3383
     11 C5        -29.3039   39.7977   40.7455 C.ar        1 MOL       0.0282
     12 N         -29.0033   45.3748   37.2531 N.am        1 MOL      -0.2380
     13 CA        -28.1859   45.7954   36.1534 C.3         1 MOL       0.1484
     14 C         -28.7487   47.0347   35.6258 C.2         1 MOL       0.2046
     15 O         -29.2686   47.0590   34.5196 O.2         1 MOL      -0.3944
     16 CB        -27.9421   44.6547   35.1081 C.3         1 MOL       0.0400
     17 CG        -29.1392   43.8837   34.6569 C.ar        1 MOL      -0.0004
     18 CD1       -29.8233   43.0297   35.5601 C.ar        1 MOL      -0.0239
     19 CD2       -29.5654   43.9130   33.3087 C.ar        1 MOL      -0.0239
     20 CE1       -30.9150   42.2597   35.1327 C.ar        1 MOL       0.0115
     21 CE2       -30.6604   43.1413   32.8824 C.ar        1 MOL       0.0115
     22 CZ        -31.3595   42.3250   33.7966 C.ar        1 MOL       0.1728
     23 OH        -32.3796   41.5149   33.3747 O.3         1 MOL      -0.2040
     24 P         -33.7870   42.1741   33.4498 P.3         1 MOL       0.1348
     25 O1P       -34.1329   42.6043   34.7831 O.co2       1 MOL      -0.6653
     26 O2P       -34.7533   41.1752   33.0623 O.co2       1 MOL      -0.6653
     27 O3P       -33.9215   43.2749   32.5282 O.co2       1 MOL      -0.6653
     28 N         -28.7275   48.1199   36.4004 N.am        1 MOL      -0.2712
     29 CA        -29.2051   49.4673   36.1321 C.3         1 MOL       0.1461
     30 CH3       -28.6195   49.9394   34.7588 C.3         1 MOL      -0.0287
     31 C         -28.7104   50.3976   37.1746 C.2         1 MOL       0.2294
     32 O         -28.0220   49.9816   38.1029 O.2         1 MOL      -0.3416
     33 CB        -30.7794   49.4729   36.0937 C.3         1 MOL       0.0325
     34 CG        -31.4413   48.8676   37.2849 C.ar        1 MOL      -0.0034
     35 CD1       -32.2160   47.6831   37.1798 C.ar        1 MOL      -0.0242
     36 CD2       -31.3078   49.4608   38.5653 C.ar        1 MOL      -0.0242
     37 CE1       -32.8047   47.0988   38.3122 C.ar        1 MOL       0.0115
     38 CE2       -31.8866   48.8735   39.6997 C.ar        1 MOL       0.0115
     39 CZ        -32.6169   47.6691   39.5925 C.ar        1 MOL       0.1728
     40 OH        -33.2214   47.1560   40.7082 O.3         1 MOL      -0.2040
     41 P         -32.3628   46.1020   41.4695 P.3         1 MOL       0.1348
     42 O1P       -31.0126   46.5379   41.7250 O.co2       1 MOL      -0.6653
     43 O2P       -32.3705   44.8461   40.7665 O.co2       1 MOL      -0.6653
     44 O3P       -32.9930   45.8705   42.7444 O.co2       1 MOL      -0.6653
     45 N         -28.9980   51.6980   37.1280 N.am        1 MOL      -0.2663
     46 CA        -28.5296   52.7319   38.0148 C.3         1 MOL       0.1112
     47 C         -29.2474   53.9978   37.7415 C.2         1 MOL       0.0626
     48 O         -29.7086   54.7727   38.7517 O.co2       1 MOL      -0.5664
     49 CB        -26.9768   52.9190   37.9621 C.3         1 MOL       0.0720
     50 CG        -26.4491   53.4028   36.6987 C.2         1 MOL       0.1774
     51 OD1       -26.7242   54.5287   36.3060 O.2         1 MOL      -0.3971
     52 ND2       -25.6509   52.6718   35.9512 N.am        1 MOL      -0.3007
     53 OXT       -29.4940   54.4139   36.4769 O.co2       1 MOL      -0.5664
     54 H1        -32.2230   40.2222   39.1301 H           1 MOL       0.0566
     55 H2        -31.5771   42.5416   39.3152 H           1 MOL       0.0448
     56 H3        -28.0307   41.3821   41.2897 H           1 MOL       0.0451
     57 H4        -30.8113   38.4803   40.0457 H           1 MOL       0.0459
     58 H5        -28.3014   43.6969   40.8027 H           1 MOL       0.0774
     59 H6        -29.9683   44.0468   41.2156 H           1 MOL       0.0774
     60 H7        -27.6880   39.0920   41.6977 H           1 MOL       0.1718
     61 H8        -28.7877   37.9075   41.2304 H           1 MOL       0.1718
     62 H9        -29.9591   45.5694   37.2084 H           1 MOL       0.1902
     63 H10       -27.1925   46.0606   36.5419 H           1 MOL       0.0839
     64 H11       -27.2238   43.9473   35.5324 H           1 MOL       0.0584
     65 H12       -27.4359   45.1021   34.2479 H           1 MOL       0.0584
     66 H13       -29.5094   42.9438   36.5273 H           1 MOL       0.0703
     67 H14       -29.0757   44.4950   32.6230 H           1 MOL       0.0703
     68 H15       -31.3865   41.6385   35.7935 H           1 MOL       0.0736
     69 H16       -30.9455   43.1675   31.9023 H           1 MOL       0.0736
     70 H17       -28.3351   47.9781   37.2805 H           1 MOL       0.1842
     71 H18       -28.9311   50.9606   34.5226 H           1 MOL       0.0244
     72 H19       -28.9561   49.2944   33.9436 H           1 MOL       0.0244
     73 H20       -27.5282   49.9072   34.7813 H           1 MOL       0.0244
     74 H21       -31.1070   48.9357   35.2013 H           1 MOL       0.0549
     75 H22       -31.1610   50.4901   35.9640 H           1 MOL       0.0549
     76 H23       -32.3491   47.2371   36.2682 H           1 MOL       0.0703
     77 H24       -30.7884   50.3329   38.6806 H           1 MOL       0.0703
     78 H25       -33.3696   46.2508   38.2083 H           1 MOL       0.0736
     79 H26       -31.7881   49.3231   40.6137 H           1 MOL       0.0736
     80 H27       -29.5939   51.9820   36.4110 H           1 MOL       0.1883
     81 H28       -28.7871   52.4336   39.0382 H           1 MOL       0.0754
     82 H29       -26.5066   51.9602   38.2006 H           1 MOL       0.0544
     83 H30       -26.6717   53.6062   38.7594 H           1 MOL       0.0544
     84 H31       -25.3039   53.0307   35.1187 H           1 MOL       0.1814
     85 H32       -25.4013   51.7769   36.2298 H           1 MOL       0.1814
@<TRIPOS>BOND
     1     1     5  ar
     2     2     1  ar
     3     3     2  ar
     4     6     3   1
     5     3     4  ar
     6     4    11  ar
     7    11    10   1
     8    11     5  ar
     9     7     6   1
    10     8     7   1
    11     8     9   2
    12    13    12   1
    13    13    16   1
    14    14    13   1
    15    14    15   2
    16    16    17   1
    17    17    19  ar
    18    17    18  ar
    19    18    20  ar
    20    20    22  ar
    21    22    23   1
    22    21    22  ar
    23    19    21  ar
    24    23    24   1
    25    24    27  ar
    26    24    26  ar
    27    24    25  ar
    28    29    28   1
    29    29    33   1
    30    31    29   1
    31    29    30   1
    32    31    32   2
    33    33    34   1
    34    34    36  ar
    35    34    35  ar
    36    35    37  ar
    37    37    39  ar
    38    39    40   1
    39    38    39  ar
    40    36    38  ar
    41    40    41   1
    42    41    44  ar
    43    41    43  ar
    44    41    42  ar
    45    46    47   1
    46    46    49   1
    47    45    46   1
    48    49    50   1
    49    50    51   2
    50    50    52  am
    51    47    53  ar
    52    47    48  ar
    53    28    14  am
    54    12     8  am
    55    31    45  am
    56     1    54   1
    57     2    55   1
    58     4    56   1
    59     5    57   1
    60     6    58   1
    61     6    59   1
    62    10    60   1
    63    10    61   1
    64    12    62   1
    65    13    63   1
    66    16    64   1
    67    16    65   1
    68    18    66   1
    69    19    67   1
    70    20    68   1
    71    21    69   1
    72    28    70   1
    73    30    71   1
    74    30    72   1
    75    30    73   1
    76    33    74   1
    77    33    75   1
    78    35    76   1
    79    36    77   1
    80    37    78   1
    81    38    79   1
    82    45    80   1
    83    46    81   1
    84    49    82   1
    85    49    83   1
    86    52    84   1
    87    52    85   1
@<TRIPOS>SUBSTRUCTURE
     1  MOL      1

