@<TRIPOS>MOLECULE
1jyq_ligand_014
    85    87
SMALL
GAST_HUCK
****
This file was generated by PARSER (from files_GN.cpp)

@<TRIPOS>ATOM
      1 C1        -31.8492   44.7726   44.0565 C.ar        1 MOL      -0.0801
      2 C2        -31.4743   46.0140   43.5128 C.ar        1 MOL      -0.0711
      3 C3        -32.4194   47.0583   43.3738 C.ar        1 MOL      -0.0250
      4 C4        -33.7521   46.8274   43.7906 C.ar        1 MOL      -0.0414
      5 C6        -33.1781   44.5565   44.4651 C.ar        1 MOL      -0.0516
      6 C12       -32.0076   48.3474   42.7596 C.3         1 MOL       0.1084
      7 O13       -31.3669   48.0535   41.5148 O.3         1 MOL      -0.2508
      8 C16       -31.8226   48.2284   40.2493 C.2         1 MOL       0.3241
      9 O18       -33.0361   48.7842   40.0078 O.2         1 MOL      -0.3773
     10 N11       -35.4032   45.3671   44.7166 N.pl3       1 MOL      -0.3383
     11 C5        -34.1330   45.5808   44.3305 C.ar        1 MOL       0.0282
     12 N         -31.0455   47.7177   39.2684 N.am        1 MOL      -0.2380
     13 CA        -31.3589   47.6020   37.8746 C.3         1 MOL       0.1484
     14 C         -30.6958   48.6496   37.1071 C.2         1 MOL       0.2046
     15 O         -31.3394   49.3994   36.3831 O.2         1 MOL      -0.3944
     16 CB        -32.8834   47.4001   37.5848 C.3         1 MOL       0.0400
     17 CG        -33.4444   46.1659   38.2020 C.ar        1 MOL      -0.0004
     18 CD1       -34.4160   46.2357   39.2268 C.ar        1 MOL      -0.0239
     19 CD2       -33.0101   44.8926   37.7629 C.ar        1 MOL      -0.0239
     20 CE1       -34.9228   45.0639   39.8147 C.ar        1 MOL       0.0115
     21 CE2       -33.5290   43.7196   38.3408 C.ar        1 MOL       0.0115
     22 CZ        -34.4687   43.7975   39.3895 C.ar        1 MOL       0.1728
     23 OH        -35.0049   42.6610   39.9340 O.3         1 MOL      -0.2040
     24 P         -34.1411   42.0405   41.0763 P.3         1 MOL       0.1348
     25 O1P       -33.9386   42.9465   42.1790 O.co2       1 MOL      -0.6653
     26 O2P       -32.8684   41.5586   40.6002 O.co2       1 MOL      -0.6653
     27 O3P       -34.8527   40.9002   41.5942 O.co2       1 MOL      -0.6653
     28 N         -29.3663   48.6773   37.1118 N.am        1 MOL      -0.2712
     29 CA        -28.4644   49.3412   36.1915 C.3         1 MOL       0.1461
     30 CH3       -27.0655   49.3066   36.8841 C.3         1 MOL      -0.0287
     31 C         -28.8374   50.7546   35.9876 C.2         1 MOL       0.2294
     32 O         -29.0475   51.1739   34.8513 O.2         1 MOL      -0.3416
     33 CB        -28.4666   48.4550   34.8815 C.3         1 MOL       0.0325
     34 CG        -27.4939   48.7569   33.7871 C.ar        1 MOL      -0.0034
     35 CD1       -27.8637   49.5479   32.6709 C.ar        1 MOL      -0.0242
     36 CD2       -26.2167   48.1479   33.7757 C.ar        1 MOL      -0.0242
     37 CE1       -26.9840   49.7320   31.5871 C.ar        1 MOL       0.0115
     38 CE2       -25.3390   48.3270   32.6942 C.ar        1 MOL       0.0115
     39 CZ        -25.7228   49.1009   31.5801 C.ar        1 MOL       0.1728
     40 OH        -24.8469   49.2847   30.5392 O.3         1 MOL      -0.2040
     41 P         -24.8444   48.1101   29.5073 P.3         1 MOL       0.1348
     42 O1P       -24.6264   46.8310   30.1367 O.co2       1 MOL      -0.6653
     43 O2P       -23.7652   48.2874   28.5700 O.co2       1 MOL      -0.6653
     44 O3P       -26.0645   48.0591   28.7431 O.co2       1 MOL      -0.6653
     45 N         -29.0120   51.5784   37.0232 N.am        1 MOL      -0.2663
     46 CA        -29.4888   52.9358   36.9549 C.3         1 MOL       0.1112
     47 C         -28.3425   53.8631   36.7869 C.2         1 MOL       0.0626
     48 O         -28.2482   54.6943   35.7249 O.co2       1 MOL      -0.5664
     49 CB        -30.4283   53.2783   38.1590 C.3         1 MOL       0.0720
     50 CG        -29.8796   54.1201   39.2106 C.2         1 MOL       0.1774
     51 OD1       -29.6932   55.3096   38.9945 O.2         1 MOL      -0.3971
     52 ND2       -29.5553   53.6443   40.3932 N.am        1 MOL      -0.3007
     53 OXT       -27.3365   53.8856   37.6903 O.co2       1 MOL      -0.5664
     54 H1        -31.1582   44.0236   44.1457 H           1 MOL       0.0566
     55 H2        -30.5095   46.1489   43.2062 H           1 MOL       0.0448
     56 H3        -34.4556   47.5644   43.6891 H           1 MOL       0.0451
     57 H4        -33.4431   43.6437   44.8475 H           1 MOL       0.0459
     58 H5        -31.2925   48.8542   43.4118 H           1 MOL       0.0774
     59 H6        -32.8592   49.0171   42.6186 H           1 MOL       0.0774
     60 H7        -36.0632   46.0768   44.6329 H           1 MOL       0.1718
     61 H8        -35.6654   44.5077   45.0780 H           1 MOL       0.1718
     62 H9        -30.1748   47.3868   39.5420 H           1 MOL       0.1902
     63 H10       -30.8775   46.6739   37.5579 H           1 MOL       0.0839
     64 H11       -33.0457   47.3426   36.5050 H           1 MOL       0.0584
     65 H12       -33.4313   48.2787   37.9272 H           1 MOL       0.0584
     66 H13       -34.7561   47.1408   39.5587 H           1 MOL       0.0703
     67 H14       -32.3169   44.8114   37.0125 H           1 MOL       0.0703
     68 H15       -35.6287   45.1319   40.5531 H           1 MOL       0.0736
     69 H16       -33.2188   42.8060   37.9964 H           1 MOL       0.0736
     70 H17       -28.9412   48.0704   37.7440 H           1 MOL       0.1842
     71 H18       -26.3098   49.8091   36.2721 H           1 MOL       0.0244
     72 H19       -26.7417   48.2778   37.0557 H           1 MOL       0.0244
     73 H20       -27.0936   49.8074   37.8584 H           1 MOL       0.0244
     74 H21       -29.4780   48.4837   34.4593 H           1 MOL       0.0549
     75 H22       -28.3111   47.4079   35.1623 H           1 MOL       0.0549
     76 H23       -28.7881   49.9847   32.6283 H           1 MOL       0.0703
     77 H24       -25.9275   47.5396   34.5441 H           1 MOL       0.0703
     78 H25       -27.2714   50.3043   30.7917 H           1 MOL       0.0736
     79 H26       -24.4275   47.8674   32.7033 H           1 MOL       0.0736
     80 H27       -28.8708   51.2062   37.9068 H           1 MOL       0.1883
     81 H28       -30.1245   53.0207   36.0700 H           1 MOL       0.0754
     82 H29       -30.7908   52.3404   38.6060 H           1 MOL       0.0544
     83 H30       -31.3198   53.7816   37.7770 H           1 MOL       0.0544
     84 H31       -29.1767   54.2376   41.0654 H           1 MOL       0.1814
     85 H32       -29.6876   52.7042   40.5936 H           1 MOL       0.1814
@<TRIPOS>BOND
     1     1     5  ar
     2     2     1  ar
     3     3     2  ar
     4     6     3   1
     5     3     4  ar
     6     4    11  ar
     7    11    10   1
     8    11     5  ar
     9     7     6   1
    10     8     7   1
    11     8     9   2
    12    13    12   1
    13    13    16   1
    14    14    13   1
    15    14    15   2
    16    16    17   1
    17    17    19  ar
    18    17    18  ar
    19    18    20  ar
    20    20    22  ar
    21    22    23   1
    22    21    22  ar
    23    19    21  ar
    24    23    24   1
    25    24    27  ar
    26    24    26  ar
    27    24    25  ar
    28    29    28   1
    29    29    33   1
    30    31    29   1
    31    29    30   1
    32    31    32   2
    33    33    34   1
    34    34    36  ar
    35    34    35  ar
    36    35    37  ar
    37    37    39  ar
    38    39    40   1
    39    38    39  ar
    40    36    38  ar
    41    40    41   1
    42    41    44  ar
    43    41    43  ar
    44    41    42  ar
    45    46    47   1
    46    46    49   1
    47    45    46   1
    48    49    50   1
    49    50    51   2
    50    50    52  am
    51    47    53  ar
    52    47    48  ar
    53    28    14  am
    54    12     8  am
    55    31    45  am
    56     1    54   1
    57     2    55   1
    58     4    56   1
    59     5    57   1
    60     6    58   1
    61     6    59   1
    62    10    60   1
    63    10    61   1
    64    12    62   1
    65    13    63   1
    66    16    64   1
    67    16    65   1
    68    18    66   1
    69    19    67   1
    70    20    68   1
    71    21    69   1
    72    28    70   1
    73    30    71   1
    74    30    72   1
    75    30    73   1
    76    33    74   1
    77    33    75   1
    78    35    76   1
    79    36    77   1
    80    37    78   1
    81    38    79   1
    82    45    80   1
    83    46    81   1
    84    49    82   1
    85    49    83   1
    86    52    84   1
    87    52    85   1
@<TRIPOS>SUBSTRUCTURE
     1  MOL      1

