@<TRIPOS>MOLECULE
1jyq_ligand_088
    85    87
SMALL
GAST_HUCK
****
This file was generated by PARSER (from files_GN.cpp)

@<TRIPOS>ATOM
      1 C1        -33.9982   48.5867   30.9329 C.ar        1 MOL      -0.0801
      2 C2        -34.3004   47.6279   31.9171 C.ar        1 MOL      -0.0711
      3 C3        -33.3699   46.6161   32.2499 C.ar        1 MOL      -0.0250
      4 C4        -32.1282   46.5852   31.5687 C.ar        1 MOL      -0.0414
      5 C6        -32.7640   48.5410   30.2603 C.ar        1 MOL      -0.0516
      6 C12       -33.6743   45.5933   33.2841 C.3         1 MOL       0.1084
      7 O13       -32.8080   45.7107   34.4214 O.3         1 MOL      -0.2508
      8 C16       -32.7998   46.7096   35.3444 C.2         1 MOL       0.3241
      9 O18       -33.6916   47.7280   35.2646 O.2         1 MOL      -0.3773
     10 N11       -30.6529   47.4877   29.9172 N.pl3       1 MOL      -0.3383
     11 C5        -31.8268   47.5376   30.5734 C.ar        1 MOL       0.0282
     12 N         -31.8394   46.6778   36.2936 N.am        1 MOL      -0.2380
     13 CA        -31.5797   47.7130   37.2619 C.3         1 MOL       0.1484
     14 C         -30.5530   48.5606   36.6596 C.2         1 MOL       0.2046
     15 O         -30.8849   49.2233   35.6810 O.2         1 MOL      -0.3944
     16 CB        -31.2703   47.0456   38.6450 C.3         1 MOL       0.0400
     17 CG        -31.3811   47.9296   39.8476 C.ar        1 MOL      -0.0004
     18 CD1       -32.0949   47.4940   40.9933 C.ar        1 MOL      -0.0239
     19 CD2       -30.7204   49.1809   39.9207 C.ar        1 MOL      -0.0239
     20 CE1       -32.1558   48.2815   42.1583 C.ar        1 MOL       0.0115
     21 CE2       -30.7870   49.9710   41.0839 C.ar        1 MOL       0.0115
     22 CZ        -31.5303   49.5420   42.2000 C.ar        1 MOL       0.1728
     23 OH        -31.5607   50.2804   43.3509 O.3         1 MOL      -0.2040
     24 P         -32.7181   51.3223   43.3813 P.3         1 MOL       0.1348
     25 O1P       -32.7251   51.8932   44.7081 O.co2       1 MOL      -0.6653
     26 O2P       -34.0174   50.7167   43.1927 O.co2       1 MOL      -0.6653
     27 O3P       -32.5314   52.4054   42.4452 O.co2       1 MOL      -0.6653
     28 N         -29.2690   48.5376   37.0357 N.am        1 MOL      -0.2712
     29 CA        -28.1146   49.1160   36.3653 C.3         1 MOL       0.1461
     30 CH3       -26.9535   49.0868   37.4214 C.3         1 MOL      -0.0287
     31 C         -28.4060   50.5390   36.0462 C.2         1 MOL       0.2294
     32 O         -28.4697   50.9337   34.8857 O.2         1 MOL      -0.3416
     33 CB        -27.7656   48.1361   35.1546 C.3         1 MOL       0.0325
     34 CG        -27.3385   48.6756   33.8299 C.ar        1 MOL      -0.0034
     35 CD1       -28.1726   48.5375   32.6936 C.ar        1 MOL      -0.0242
     36 CD2       -26.1002   49.3391   33.6713 C.ar        1 MOL      -0.0242
     37 CE1       -27.7907   49.0475   31.4446 C.ar        1 MOL       0.0115
     38 CE2       -25.7159   49.8604   32.4215 C.ar        1 MOL       0.0115
     39 CZ        -26.5489   49.6976   31.2924 C.ar        1 MOL       0.1728
     40 OH        -26.2175   50.2596   30.0878 O.3         1 MOL      -0.2040
     41 P         -25.5203   49.2831   29.1008 P.3         1 MOL       0.1348
     42 O1P       -25.3582   49.9878   27.8491 O.co2       1 MOL      -0.6653
     43 O2P       -26.3162   48.1159   28.8037 O.co2       1 MOL      -0.6653
     44 O3P       -24.2128   48.8731   29.5522 O.co2       1 MOL      -0.6653
     45 N         -28.7367   51.3920   37.0201 N.am        1 MOL      -0.2663
     46 CA        -29.2695   52.7257   36.8564 C.3         1 MOL       0.1112
     47 C         -28.1686   53.7017   36.6720 C.2         1 MOL       0.0626
     48 O         -28.1743   54.5977   35.6611 O.co2       1 MOL      -0.5664
     49 CB        -30.2742   53.0854   38.0043 C.3         1 MOL       0.0720
     50 CG        -29.7983   53.9510   39.0755 C.2         1 MOL       0.1774
     51 OD1       -29.8250   55.1645   38.9335 O.2         1 MOL      -0.3971
     52 ND2       -29.2567   53.4681   40.1681 N.am        1 MOL      -0.3007
     53 OXT       -27.1562   53.7833   37.5694 O.co2       1 MOL      -0.5664
     54 H1        -34.6777   49.3154   30.7030 H           1 MOL       0.0566
     55 H2        -35.2055   47.6764   32.3929 H           1 MOL       0.0448
     56 H3        -31.4436   45.8580   31.7925 H           1 MOL       0.0451
     57 H4        -32.5564   49.2376   29.5405 H           1 MOL       0.0459
     58 H5        -33.5292   44.6032   32.8489 H           1 MOL       0.0774
     59 H6        -34.7114   45.6506   33.6231 H           1 MOL       0.0774
     60 H7        -30.0085   46.7918   30.1285 H           1 MOL       0.1718
     61 H8        -30.4526   48.1386   29.2310 H           1 MOL       0.1718
     62 H9        -31.2081   45.9401   36.2494 H           1 MOL       0.1902
     63 H10       -32.4835   48.3175   37.4121 H           1 MOL       0.0839
     64 H11       -30.2782   46.5931   38.6348 H           1 MOL       0.0584
     65 H12       -31.9609   46.2084   38.7687 H           1 MOL       0.0584
     66 H13       -32.5645   46.5849   40.9974 H           1 MOL       0.0703
     67 H14       -30.1728   49.5298   39.1373 H           1 MOL       0.0703
     68 H15       -32.6612   47.9326   42.9774 H           1 MOL       0.0736
     69 H16       -30.2962   50.8662   41.1188 H           1 MOL       0.0736
     70 H17       -29.0643   47.9934   37.8131 H           1 MOL       0.1842
     71 H18       -26.0565   49.5679   37.0249 H           1 MOL       0.0244
     72 H19       -26.6979   48.0535   37.6927 H           1 MOL       0.0244
     73 H20       -27.2387   49.5960   38.3433 H           1 MOL       0.0244
     74 H21       -28.6277   47.4864   34.9722 H           1 MOL       0.0549
     75 H22       -26.9761   47.4393   35.4602 H           1 MOL       0.0549
     76 H23       -29.0796   48.0637   32.7677 H           1 MOL       0.0703
     77 H24       -25.4722   49.4557   34.4685 H           1 MOL       0.0703
     78 H25       -28.4168   48.9473   30.6391 H           1 MOL       0.0736
     79 H26       -24.8281   50.3571   32.3269 H           1 MOL       0.0736
     80 H27       -28.7224   51.0427   37.9187 H           1 MOL       0.1883
     81 H28       -29.8683   52.7280   35.9358 H           1 MOL       0.0754
     82 H29       -30.6680   52.1680   38.4468 H           1 MOL       0.0544
     83 H30       -31.1445   53.5813   37.5567 H           1 MOL       0.0544
     84 H31       -28.9249   54.0688   40.8530 H           1 MOL       0.1814
     85 H32       -29.1786   52.5048   40.2933 H           1 MOL       0.1814
@<TRIPOS>BOND
     1     1     5  ar
     2     2     1  ar
     3     3     2  ar
     4     6     3   1
     5     3     4  ar
     6     4    11  ar
     7    11    10   1
     8    11     5  ar
     9     7     6   1
    10     8     7   1
    11     8     9   2
    12    13    12   1
    13    13    16   1
    14    14    13   1
    15    14    15   2
    16    16    17   1
    17    17    19  ar
    18    17    18  ar
    19    18    20  ar
    20    20    22  ar
    21    22    23   1
    22    21    22  ar
    23    19    21  ar
    24    23    24   1
    25    24    27  ar
    26    24    26  ar
    27    24    25  ar
    28    29    28   1
    29    29    33   1
    30    31    29   1
    31    29    30   1
    32    31    32   2
    33    33    34   1
    34    34    36  ar
    35    34    35  ar
    36    35    37  ar
    37    37    39  ar
    38    39    40   1
    39    38    39  ar
    40    36    38  ar
    41    40    41   1
    42    41    44  ar
    43    41    43  ar
    44    41    42  ar
    45    46    47   1
    46    46    49   1
    47    45    46   1
    48    49    50   1
    49    50    51   2
    50    50    52  am
    51    47    53  ar
    52    47    48  ar
    53    28    14  am
    54    12     8  am
    55    31    45  am
    56     1    54   1
    57     2    55   1
    58     4    56   1
    59     5    57   1
    60     6    58   1
    61     6    59   1
    62    10    60   1
    63    10    61   1
    64    12    62   1
    65    13    63   1
    66    16    64   1
    67    16    65   1
    68    18    66   1
    69    19    67   1
    70    20    68   1
    71    21    69   1
    72    28    70   1
    73    30    71   1
    74    30    72   1
    75    30    73   1
    76    33    74   1
    77    33    75   1
    78    35    76   1
    79    36    77   1
    80    37    78   1
    81    38    79   1
    82    45    80   1
    83    46    81   1
    84    49    82   1
    85    49    83   1
    86    52    84   1
    87    52    85   1
@<TRIPOS>SUBSTRUCTURE
     1  MOL      1

