@<TRIPOS>MOLECULE
1jyq_ligand_048
    85    87
SMALL
GAST_HUCK
****
This file was generated by PARSER (from files_GN.cpp)

@<TRIPOS>ATOM
      1 C1        -29.0728   40.9967   40.6320 C.ar        1 MOL      -0.0801
      2 C2        -30.1416   40.9719   39.7178 C.ar        1 MOL      -0.0711
      3 C3        -30.2589   41.9599   38.7152 C.ar        1 MOL      -0.0250
      4 C4        -29.3032   43.0013   38.6772 C.ar        1 MOL      -0.0414
      5 C6        -28.1093   42.0166   40.5602 C.ar        1 MOL      -0.0516
      6 C12       -31.3788   41.8675   37.7378 C.3         1 MOL       0.1084
      7 O13       -31.4158   42.8657   36.7068 O.3         1 MOL      -0.2508
      8 C16       -30.4615   43.1497   35.7830 C.2         1 MOL       0.3241
      9 O18       -29.3012   42.4489   35.7278 O.2         1 MOL      -0.3773
     10 N11       -27.3217   44.0189   39.5104 N.pl3       1 MOL      -0.3383
     11 C5        -28.2272   43.0273   39.5861 C.ar        1 MOL       0.0282
     12 N         -30.7471   44.1525   34.9251 N.am        1 MOL      -0.2380
     13 CA        -29.9418   44.6083   33.8275 C.3         1 MOL       0.1484
     14 C         -29.9623   46.0711   33.8026 C.2         1 MOL       0.2046
     15 O         -31.0531   46.6267   33.7461 O.2         1 MOL      -0.3944
     16 CB        -30.4830   43.9536   32.5154 C.3         1 MOL       0.0400
     17 CG        -30.0813   44.6226   31.2493 C.ar        1 MOL      -0.0004
     18 CD1       -28.7186   44.8941   30.9839 C.ar        1 MOL      -0.0239
     19 CD2       -31.0417   45.0049   30.2819 C.ar        1 MOL      -0.0239
     20 CE1       -28.3422   45.5708   29.8125 C.ar        1 MOL       0.0115
     21 CE2       -30.6577   45.6388   29.0886 C.ar        1 MOL       0.0115
     22 CZ        -29.2993   45.9527   28.8476 C.ar        1 MOL       0.1728
     23 OH        -28.8176   46.5360   27.7041 O.3         1 MOL      -0.2040
     24 P         -29.4374   47.8876   27.2346 P.3         1 MOL       0.1348
     25 O1P       -30.4711   47.6420   26.2587 O.co2       1 MOL      -0.6653
     26 O2P       -28.4035   48.6481   26.5739 O.co2       1 MOL      -0.6653
     27 O3P       -29.9755   48.7016   28.2986 O.co2       1 MOL      -0.6653
     28 N         -28.8143   46.7551   33.8197 N.am        1 MOL      -0.2712
     29 CA        -28.4999   48.1829   33.8653 C.3         1 MOL       0.1461
     30 CH3       -29.7642   49.0884   34.0983 C.3         1 MOL      -0.0287
     31 C         -27.8052   48.5083   32.5960 C.2         1 MOL       0.2294
     32 O         -28.2623   49.3390   31.8202 O.2         1 MOL      -0.3416
     33 CB        -27.4927   48.3472   35.0772 C.3         1 MOL       0.0325
     34 CG        -27.3059   49.7117   35.6671 C.ar        1 MOL      -0.0034
     35 CD1       -27.1775   49.8801   37.0679 C.ar        1 MOL      -0.0242
     36 CD2       -27.2649   50.8748   34.8621 C.ar        1 MOL      -0.0242
     37 CE1       -27.0829   51.1588   37.6474 C.ar        1 MOL       0.0115
     38 CE2       -27.2163   52.1615   35.4342 C.ar        1 MOL       0.0115
     39 CZ        -27.1733   52.3174   36.8384 C.ar        1 MOL       0.1728
     40 OH        -27.1919   53.5834   37.3650 O.3         1 MOL      -0.2040
     41 P         -28.6321   54.1721   37.5001 P.3         1 MOL       0.1348
     42 O1P       -29.4714   53.9495   36.3492 O.co2       1 MOL      -0.6653
     43 O2P       -28.4923   55.5997   37.6369 O.co2       1 MOL      -0.6653
     44 O3P       -29.2856   53.6957   38.6920 O.co2       1 MOL      -0.6653
     45 N         -26.6329   47.9339   32.3075 N.am        1 MOL      -0.2663
     46 CA        -25.7151   48.1737   31.2175 C.3         1 MOL       0.1112
     47 C         -24.6746   49.1427   31.6249 C.2         1 MOL       0.0626
     48 O         -23.4080   49.0298   31.1424 O.co2       1 MOL      -0.5664
     49 CB        -26.3512   48.4206   29.8017 C.3         1 MOL       0.0720
     50 CG        -26.5770   49.7945   29.3805 C.2         1 MOL       0.1774
     51 OD1       -27.6963   50.2845   29.4136 O.2         1 MOL      -0.3971
     52 ND2       -25.6192   50.5114   28.8275 N.am        1 MOL      -0.3007
     53 OXT       -25.0092   50.3019   32.2471 O.co2       1 MOL      -0.5664
     54 H1        -28.9905   40.2677   41.3456 H           1 MOL       0.0566
     55 H2        -30.8272   40.2150   39.7833 H           1 MOL       0.0448
     56 H3        -29.3771   43.7503   37.9902 H           1 MOL       0.0451
     57 H4        -27.3268   42.0236   41.2230 H           1 MOL       0.0459
     58 H5        -32.3146   41.9500   38.2899 H           1 MOL       0.0774
     59 H6        -31.3614   40.8826   37.2606 H           1 MOL       0.0774
     60 H7        -27.4117   44.7119   38.8390 H           1 MOL       0.1718
     61 H8        -26.5809   44.0451   40.1305 H           1 MOL       0.1718
     62 H9        -31.6198   44.5695   35.0167 H           1 MOL       0.1902
     63 H10       -28.9095   44.2672   33.9561 H           1 MOL       0.0839
     64 H11       -31.5756   43.9028   32.5723 H           1 MOL       0.0584
     65 H12       -30.1245   42.9248   32.4729 H           1 MOL       0.0584
     66 H13       -27.9913   44.6192   31.6485 H           1 MOL       0.0703
     67 H14       -32.0343   44.8136   30.4350 H           1 MOL       0.0703
     68 H15       -27.3557   45.7858   29.6614 H           1 MOL       0.0736
     69 H16       -31.3685   45.8859   28.3996 H           1 MOL       0.0736
     70 H17       -28.0200   46.1909   33.8217 H           1 MOL       0.1842
     71 H18       -29.4903   50.1482   34.1689 H           1 MOL       0.0244
     72 H19       -30.2720   48.8075   35.0265 H           1 MOL       0.0244
     73 H20       -30.4683   48.9926   33.2628 H           1 MOL       0.0244
     74 H21       -26.4971   47.9857   34.7968 H           1 MOL       0.0549
     75 H22       -27.8262   47.6752   35.8734 H           1 MOL       0.0549
     76 H23       -27.1717   49.0706   37.6942 H           1 MOL       0.0703
     77 H24       -27.3115   50.8035   33.8488 H           1 MOL       0.0703
     78 H25       -27.0070   51.2573   38.6647 H           1 MOL       0.0736
     79 H26       -27.2373   52.9896   34.8305 H           1 MOL       0.0736
     80 H27       -26.3224   47.2716   32.9500 H           1 MOL       0.1883
     81 H28       -25.1933   47.2092   31.1339 H           1 MOL       0.0754
     82 H29       -27.2956   47.8740   29.7702 H           1 MOL       0.0544
     83 H30       -25.6986   47.9545   29.0518 H           1 MOL       0.0544
     84 H31       -25.8344   51.3906   28.4786 H           1 MOL       0.1814
     85 H32       -24.7177   50.1567   28.7288 H           1 MOL       0.1814
@<TRIPOS>BOND
     1     1     5  ar
     2     2     1  ar
     3     3     2  ar
     4     6     3   1
     5     3     4  ar
     6     4    11  ar
     7    11    10   1
     8    11     5  ar
     9     7     6   1
    10     8     7   1
    11     8     9   2
    12    13    12   1
    13    13    16   1
    14    14    13   1
    15    14    15   2
    16    16    17   1
    17    17    19  ar
    18    17    18  ar
    19    18    20  ar
    20    20    22  ar
    21    22    23   1
    22    21    22  ar
    23    19    21  ar
    24    23    24   1
    25    24    27  ar
    26    24    26  ar
    27    24    25  ar
    28    29    28   1
    29    29    33   1
    30    31    29   1
    31    29    30   1
    32    31    32   2
    33    33    34   1
    34    34    36  ar
    35    34    35  ar
    36    35    37  ar
    37    37    39  ar
    38    39    40   1
    39    38    39  ar
    40    36    38  ar
    41    40    41   1
    42    41    44  ar
    43    41    43  ar
    44    41    42  ar
    45    46    47   1
    46    46    49   1
    47    45    46   1
    48    49    50   1
    49    50    51   2
    50    50    52  am
    51    47    53  ar
    52    47    48  ar
    53    28    14  am
    54    12     8  am
    55    31    45  am
    56     1    54   1
    57     2    55   1
    58     4    56   1
    59     5    57   1
    60     6    58   1
    61     6    59   1
    62    10    60   1
    63    10    61   1
    64    12    62   1
    65    13    63   1
    66    16    64   1
    67    16    65   1
    68    18    66   1
    69    19    67   1
    70    20    68   1
    71    21    69   1
    72    28    70   1
    73    30    71   1
    74    30    72   1
    75    30    73   1
    76    33    74   1
    77    33    75   1
    78    35    76   1
    79    36    77   1
    80    37    78   1
    81    38    79   1
    82    45    80   1
    83    46    81   1
    84    49    82   1
    85    49    83   1
    86    52    84   1
    87    52    85   1
@<TRIPOS>SUBSTRUCTURE
     1  MOL      1

