@<TRIPOS>MOLECULE
1jyq_ligand_001
    85    87
SMALL
GAST_HUCK
****
This file was generated by PARSER (from files_GN.cpp)

@<TRIPOS>ATOM
      1 C1        -23.9420   38.6410   31.8877 C.ar        1 MOL      -0.0801
      2 C2        -23.9791   39.7601   32.7368 C.ar        1 MOL      -0.0711
      3 C3        -23.2873   40.9450   32.4003 C.ar        1 MOL      -0.0250
      4 C4        -22.5480   40.9805   31.1924 C.ar        1 MOL      -0.0414
      5 C6        -23.1946   38.6840   30.6970 C.ar        1 MOL      -0.0516
      6 C12       -23.2919   42.1146   33.3157 C.3         1 MOL       0.1084
      7 O13       -24.2980   43.0866   32.9893 O.3         1 MOL      -0.2508
      8 C16       -25.6249   43.0260   33.2692 C.2         1 MOL       0.3241
      9 O18       -26.1432   41.9591   33.9258 O.2         1 MOL      -0.3773
     10 N11       -21.7552   39.8858   29.2218 N.pl3       1 MOL      -0.3383
     11 C5        -22.4907   39.8507   30.3479 C.ar        1 MOL       0.0282
     12 N         -26.3605   44.1339   33.0253 N.am        1 MOL      -0.2380
     13 CA        -27.7077   44.3904   33.4621 C.3         1 MOL       0.1484
     14 C         -27.9833   45.8071   33.2223 C.2         1 MOL       0.2046
     15 O         -28.9616   46.1326   32.5543 O.2         1 MOL      -0.3944
     16 CB        -27.9442   43.9976   34.9662 C.3         1 MOL       0.0400
     17 CG        -29.1170   44.6041   35.6618 C.ar        1 MOL      -0.0004
     18 CD1       -30.4271   44.3864   35.1780 C.ar        1 MOL      -0.0239
     19 CD2       -28.9520   45.3865   36.8292 C.ar        1 MOL      -0.0239
     20 CE1       -31.5381   44.9569   35.8250 C.ar        1 MOL       0.0115
     21 CE2       -30.0637   45.9509   37.4826 C.ar        1 MOL       0.0115
     22 CZ        -31.3620   45.7605   36.9698 C.ar        1 MOL       0.1728
     23 OH        -32.4549   46.2551   37.6313 O.3         1 MOL      -0.2040
     24 P         -32.8418   47.7077   37.2310 P.3         1 MOL       0.1348
     25 O1P       -34.0436   48.0490   37.9531 O.co2       1 MOL      -0.6653
     26 O2P       -33.1410   47.8408   35.8263 O.co2       1 MOL      -0.6653
     27 O3P       -31.8365   48.6704   37.6134 O.co2       1 MOL      -0.6653
     28 N         -27.2075   46.7126   33.8040 N.am        1 MOL      -0.2712
     29 CA        -27.3365   48.1600   33.9059 C.3         1 MOL       0.1461
     30 CH3       -28.7327   48.4657   34.5502 C.3         1 MOL      -0.0287
     31 C         -27.2064   48.8521   32.6038 C.2         1 MOL       0.2294
     32 O         -27.4541   50.0644   32.5809 O.2         1 MOL      -0.3416
     33 CB        -26.1746   48.5911   34.8922 C.3         1 MOL       0.0325
     34 CG        -26.3049   49.9001   35.6011 C.ar        1 MOL      -0.0034
     35 CD1       -26.7011   49.9498   36.9605 C.ar        1 MOL      -0.0242
     36 CD2       -26.0501   51.1137   34.9226 C.ar        1 MOL      -0.0242
     37 CE1       -26.8957   51.1813   37.6072 C.ar        1 MOL       0.0115
     38 CE2       -26.2684   52.3498   35.5693 C.ar        1 MOL       0.0115
     39 CZ        -26.7408   52.3966   36.8985 C.ar        1 MOL       0.1728
     40 OH        -27.0149   53.6208   37.4670 O.3         1 MOL      -0.2040
     41 P         -28.5249   53.9886   37.4212 P.3         1 MOL       0.1348
     42 O1P       -28.6368   55.4155   37.5701 O.co2       1 MOL      -0.6653
     43 O2P       -29.2731   53.4022   38.5060 O.co2       1 MOL      -0.6653
     44 O3P       -29.1661   53.6825   36.1669 O.co2       1 MOL      -0.6653
     45 N         -26.7600   48.2353   31.5015 N.am        1 MOL      -0.2663
     46 CA        -26.5513   48.8080   30.1983 C.3         1 MOL       0.1112
     47 C         -27.5551   48.2444   29.2655 C.2         1 MOL       0.0626
     48 O         -28.6926   48.9245   28.9922 O.co2       1 MOL      -0.5664
     49 CB        -25.1000   48.5447   29.6851 C.3         1 MOL       0.0720
     50 CG        -24.0689   49.2947   30.3739 C.2         1 MOL       0.1774
     51 OD1       -24.2990   50.4162   30.8122 O.2         1 MOL      -0.3971
     52 ND2       -22.8231   48.8636   30.4540 N.am        1 MOL      -0.3007
     53 OXT       -27.3867   47.0446   28.6614 O.co2       1 MOL      -0.5664
     54 H1        -24.4519   37.7966   32.1424 H           1 MOL       0.0566
     55 H2        -24.5143   39.7038   33.6043 H           1 MOL       0.0448
     56 H3        -22.0246   41.8245   30.9381 H           1 MOL       0.0451
     57 H4        -23.1601   37.8611   30.0905 H           1 MOL       0.0459
     58 H5        -22.3194   42.6094   33.2714 H           1 MOL       0.0774
     59 H6        -23.4277   41.7984   34.3549 H           1 MOL       0.0774
     60 H7        -21.2646   40.6895   28.9828 H           1 MOL       0.1718
     61 H8        -21.7033   39.1031   28.6489 H           1 MOL       0.1718
     62 H9        -25.8930   44.8607   32.5787 H           1 MOL       0.1902
     63 H10       -28.3798   43.7852   32.8449 H           1 MOL       0.0839
     64 H11       -27.0303   44.2266   35.5282 H           1 MOL       0.0584
     65 H12       -28.0763   42.9146   35.0299 H           1 MOL       0.0584
     66 H13       -30.5803   43.8061   34.3458 H           1 MOL       0.0703
     67 H14       -28.0174   45.5571   37.2144 H           1 MOL       0.0703
     68 H15       -32.4787   44.7821   35.4635 H           1 MOL       0.0736
     69 H16       -29.9251   46.5056   38.3287 H           1 MOL       0.0736
     70 H17       -26.4473   46.3293   34.2788 H           1 MOL       0.1842
     71 H18       -28.8733   49.5409   34.6995 H           1 MOL       0.0244
     72 H19       -28.8181   47.9839   35.5278 H           1 MOL       0.0244
     73 H20       -29.5554   48.1178   33.9239 H           1 MOL       0.0244
     74 H21       -25.2188   48.5792   34.3557 H           1 MOL       0.0549
     75 H22       -26.0654   47.8250   35.6718 H           1 MOL       0.0549
     76 H23       -26.8743   49.0871   37.4865 H           1 MOL       0.0703
     77 H24       -25.7342   51.0901   33.9417 H           1 MOL       0.0703
     78 H25       -27.1990   51.2018   38.5822 H           1 MOL       0.0736
     79 H26       -26.1074   53.2214   35.0551 H           1 MOL       0.0736
     80 H27       -26.5506   47.2907   31.5867 H           1 MOL       0.1883
     81 H28       -26.7014   49.8894   30.2156 H           1 MOL       0.0754
     82 H29       -25.0506   48.8209   28.6300 H           1 MOL       0.0544
     83 H30       -24.8836   47.4722   29.7503 H           1 MOL       0.0544
     84 H31       -22.1480   49.4181   30.8691 H           1 MOL       0.1814
     85 H32       -22.5673   48.0099   30.0648 H           1 MOL       0.1814
@<TRIPOS>BOND
     1     1     5  ar
     2     2     1  ar
     3     3     2  ar
     4     6     3   1
     5     3     4  ar
     6     4    11  ar
     7    11    10   1
     8    11     5  ar
     9     7     6   1
    10     8     7   1
    11     8     9   2
    12    13    12   1
    13    13    16   1
    14    14    13   1
    15    14    15   2
    16    16    17   1
    17    17    19  ar
    18    17    18  ar
    19    18    20  ar
    20    20    22  ar
    21    22    23   1
    22    21    22  ar
    23    19    21  ar
    24    23    24   1
    25    24    27  ar
    26    24    26  ar
    27    24    25  ar
    28    29    28   1
    29    29    33   1
    30    31    29   1
    31    29    30   1
    32    31    32   2
    33    33    34   1
    34    34    36  ar
    35    34    35  ar
    36    35    37  ar
    37    37    39  ar
    38    39    40   1
    39    38    39  ar
    40    36    38  ar
    41    40    41   1
    42    41    44  ar
    43    41    43  ar
    44    41    42  ar
    45    46    47   1
    46    46    49   1
    47    45    46   1
    48    49    50   1
    49    50    51   2
    50    50    52  am
    51    47    53  ar
    52    47    48  ar
    53    28    14  am
    54    12     8  am
    55    31    45  am
    56     1    54   1
    57     2    55   1
    58     4    56   1
    59     5    57   1
    60     6    58   1
    61     6    59   1
    62    10    60   1
    63    10    61   1
    64    12    62   1
    65    13    63   1
    66    16    64   1
    67    16    65   1
    68    18    66   1
    69    19    67   1
    70    20    68   1
    71    21    69   1
    72    28    70   1
    73    30    71   1
    74    30    72   1
    75    30    73   1
    76    33    74   1
    77    33    75   1
    78    35    76   1
    79    36    77   1
    80    37    78   1
    81    38    79   1
    82    45    80   1
    83    46    81   1
    84    49    82   1
    85    49    83   1
    86    52    84   1
    87    52    85   1
@<TRIPOS>SUBSTRUCTURE
     1  MOL      1

