@<TRIPOS>MOLECULE
1jyq_ligand_037
    85    87
SMALL
GAST_HUCK
****
This file was generated by PARSER (from files_GN.cpp)

@<TRIPOS>ATOM
      1 C1        -28.5843   50.3040   27.7879 C.ar        1 MOL      -0.0801
      2 C2        -27.3184   50.4912   28.3708 C.ar        1 MOL      -0.0711
      3 C3        -26.6641   49.4250   29.0321 C.ar        1 MOL      -0.0250
      4 C4        -27.2984   48.1613   29.0788 C.ar        1 MOL      -0.0414
      5 C6        -29.2130   49.0478   27.8542 C.ar        1 MOL      -0.0516
      6 C12       -25.3450   49.6384   29.6845 C.3         1 MOL       0.1084
      7 O13       -25.2613   49.0154   30.9739 O.3         1 MOL      -0.2508
      8 C16       -26.1475   49.0882   32.0042 C.2         1 MOL       0.3241
      9 O18       -27.3059   49.7772   31.8601 O.2         1 MOL      -0.3773
     10 N11       -29.1976   46.7836   28.5955 N.pl3       1 MOL      -0.3383
     11 C5        -28.5725   47.9720   28.5026 C.ar        1 MOL       0.0282
     12 N         -25.8137   48.4006   33.1186 N.am        1 MOL      -0.2380
     13 CA        -26.5650   48.0416   34.2961 C.3         1 MOL       0.1484
     14 C         -28.0082   48.3093   34.2777 C.2         1 MOL       0.2046
     15 O         -28.4081   49.4128   33.9393 O.2         1 MOL      -0.3944
     16 CB        -25.8279   48.4841   35.6066 C.3         1 MOL       0.0400
     17 CG        -26.1613   49.8311   36.1524 C.ar        1 MOL      -0.0004
     18 CD1       -26.1286   50.9773   35.3241 C.ar        1 MOL      -0.0239
     19 CD2       -26.5536   49.9858   37.5053 C.ar        1 MOL      -0.0239
     20 CE1       -26.5321   52.2320   35.8201 C.ar        1 MOL       0.0115
     21 CE2       -26.9467   51.2414   38.0007 C.ar        1 MOL       0.0115
     22 CZ        -26.9806   52.3679   37.1500 C.ar        1 MOL       0.1728
     23 OH        -27.4061   53.5963   37.5950 O.3         1 MOL      -0.2040
     24 P         -28.9585   53.7232   37.6123 P.3         1 MOL       0.1348
     25 O1P       -29.2772   55.0655   38.0216 O.co2       1 MOL      -0.6653
     26 O2P       -29.5739   52.8420   38.5707 O.co2       1 MOL      -0.6653
     27 O3P       -29.5612   53.5518   36.3169 O.co2       1 MOL      -0.6653
     28 N         -28.8511   47.3218   34.5446 N.am        1 MOL      -0.2712
     29 CA        -30.2962   47.2025   34.4863 C.3         1 MOL       0.1461
     30 CH3       -31.0927   48.5473   34.6336 C.3         1 MOL      -0.0287
     31 C         -30.7552   46.3420   35.5893 C.2         1 MOL       0.2294
     32 O         -31.7626   45.6515   35.4228 O.2         1 MOL      -0.3416
     33 CB        -30.5935   46.5655   33.0680 C.3         1 MOL       0.0325
     34 CG        -29.6260   45.5239   32.6000 C.ar        1 MOL      -0.0034
     35 CD1       -29.7087   44.1799   33.0468 C.ar        1 MOL      -0.0242
     36 CD2       -28.5739   45.8774   31.7236 C.ar        1 MOL      -0.0242
     37 CE1       -28.7538   43.2278   32.6385 C.ar        1 MOL       0.0115
     38 CE2       -27.6243   44.9263   31.3112 C.ar        1 MOL       0.0115
     39 CZ        -27.6855   43.6028   31.7945 C.ar        1 MOL       0.1728
     40 OH        -26.7591   42.6831   31.3776 O.3         1 MOL      -0.2040
     41 P         -25.6420   42.4124   32.4304 P.3         1 MOL       0.1348
     42 O1P       -26.1826   41.9838   33.6960 O.co2       1 MOL      -0.6653
     43 O2P       -24.7441   43.5240   32.6270 O.co2       1 MOL      -0.6653
     44 O3P       -24.8503   41.3145   31.9318 O.co2       1 MOL      -0.6653
     45 N         -30.2261   46.4277   36.8158 N.am        1 MOL      -0.2663
     46 CA        -30.7198   45.8344   38.0251 C.3         1 MOL       0.1112
     47 C         -30.6412   46.8108   39.1427 C.2         1 MOL       0.0626
     48 O         -30.6350   46.3735   40.4231 O.co2       1 MOL      -0.5664
     49 CB        -29.9525   44.5069   38.3129 C.3         1 MOL       0.0720
     50 CG        -28.5931   44.6540   38.8064 C.2         1 MOL       0.1774
     51 OD1       -27.6561   44.8947   38.0511 O.2         1 MOL      -0.3971
     52 ND2       -28.3287   44.5533   40.0974 N.am        1 MOL      -0.3007
     53 OXT       -31.0048   48.1037   38.9398 O.co2       1 MOL      -0.5664
     54 H1        -29.0525   51.0869   27.3227 H           1 MOL       0.0566
     55 H2        -26.8875   51.4179   28.3270 H           1 MOL       0.0448
     56 H3        -26.8425   47.3780   29.5532 H           1 MOL       0.0451
     57 H4        -30.1424   48.9274   27.4380 H           1 MOL       0.0459
     58 H5        -25.1166   50.7007   29.8095 H           1 MOL       0.0774
     59 H6        -24.5656   49.2119   29.0509 H           1 MOL       0.0774
     60 H7        -28.7793   46.0489   29.0734 H           1 MOL       0.1718
     61 H8        -30.0787   46.6642   28.2105 H           1 MOL       0.1718
     62 H9        -24.9204   48.0128   33.0932 H           1 MOL       0.1902
     63 H10       -26.4512   46.9534   34.2784 H           1 MOL       0.0839
     64 H11       -24.7502   48.4433   35.4418 H           1 MOL       0.0584
     65 H12       -26.0389   47.7246   36.3669 H           1 MOL       0.0584
     66 H13       -25.8392   50.9029   34.3447 H           1 MOL       0.0703
     67 H14       -26.5853   49.1811   38.1329 H           1 MOL       0.0703
     68 H15       -26.5274   53.0469   35.1979 H           1 MOL       0.0736
     69 H16       -27.2415   51.3286   38.9755 H           1 MOL       0.0736
     70 H17       -28.4166   46.5039   34.8257 H           1 MOL       0.1842
     71 H18       -32.1701   48.3820   34.5512 H           1 MOL       0.0244
     72 H19       -30.8128   49.2629   33.8552 H           1 MOL       0.0244
     73 H20       -30.8953   49.0087   35.6053 H           1 MOL       0.0244
     74 H21       -30.6071   47.3801   32.3400 H           1 MOL       0.0549
     75 H22       -31.5986   46.1361   33.0359 H           1 MOL       0.0549
     76 H23       -30.4516   43.8906   33.6866 H           1 MOL       0.0703
     77 H24       -28.4732   46.8421   31.3941 H           1 MOL       0.0703
     78 H25       -28.8300   42.2616   32.9642 H           1 MOL       0.0736
     79 H26       -26.8773   45.2055   30.6730 H           1 MOL       0.0736
     80 H27       -29.4570   47.0164   36.9146 H           1 MOL       0.1883
     81 H28       -31.7745   45.5670   37.9231 H           1 MOL       0.0754
     82 H29       -29.9241   43.9053   37.4012 H           1 MOL       0.0544
     83 H30       -30.5422   43.9326   39.0387 H           1 MOL       0.0544
     84 H31       -27.4251   44.6362   40.4322 H           1 MOL       0.1814
     85 H32       -29.0533   44.3867   40.7278 H           1 MOL       0.1814
@<TRIPOS>BOND
     1     1     5  ar
     2     2     1  ar
     3     3     2  ar
     4     6     3   1
     5     3     4  ar
     6     4    11  ar
     7    11    10   1
     8    11     5  ar
     9     7     6   1
    10     8     7   1
    11     8     9   2
    12    13    12   1
    13    13    16   1
    14    14    13   1
    15    14    15   2
    16    16    17   1
    17    17    19  ar
    18    17    18  ar
    19    18    20  ar
    20    20    22  ar
    21    22    23   1
    22    21    22  ar
    23    19    21  ar
    24    23    24   1
    25    24    27  ar
    26    24    26  ar
    27    24    25  ar
    28    29    28   1
    29    29    33   1
    30    31    29   1
    31    29    30   1
    32    31    32   2
    33    33    34   1
    34    34    36  ar
    35    34    35  ar
    36    35    37  ar
    37    37    39  ar
    38    39    40   1
    39    38    39  ar
    40    36    38  ar
    41    40    41   1
    42    41    44  ar
    43    41    43  ar
    44    41    42  ar
    45    46    47   1
    46    46    49   1
    47    45    46   1
    48    49    50   1
    49    50    51   2
    50    50    52  am
    51    47    53  ar
    52    47    48  ar
    53    28    14  am
    54    12     8  am
    55    31    45  am
    56     1    54   1
    57     2    55   1
    58     4    56   1
    59     5    57   1
    60     6    58   1
    61     6    59   1
    62    10    60   1
    63    10    61   1
    64    12    62   1
    65    13    63   1
    66    16    64   1
    67    16    65   1
    68    18    66   1
    69    19    67   1
    70    20    68   1
    71    21    69   1
    72    28    70   1
    73    30    71   1
    74    30    72   1
    75    30    73   1
    76    33    74   1
    77    33    75   1
    78    35    76   1
    79    36    77   1
    80    37    78   1
    81    38    79   1
    82    45    80   1
    83    46    81   1
    84    49    82   1
    85    49    83   1
    86    52    84   1
    87    52    85   1
@<TRIPOS>SUBSTRUCTURE
     1  MOL      1

