@<TRIPOS>MOLECULE
1jyq_ligand_002
    85    87
SMALL
GAST_HUCK
****
This file was generated by PARSER (from files_GN.cpp)

@<TRIPOS>ATOM
      1 C1        -29.1061   50.7581   44.2776 C.ar        1 MOL      -0.0801
      2 C2        -30.3254   50.1149   44.0118 C.ar        1 MOL      -0.0711
      3 C3        -31.4970   50.8641   43.7442 C.ar        1 MOL      -0.0250
      4 C4        -31.4164   52.2790   43.7560 C.ar        1 MOL      -0.0414
      5 C6        -29.0373   52.1632   44.2915 C.ar        1 MOL      -0.0516
      6 C12       -32.7764   50.1868   43.4174 C.3         1 MOL       0.1084
      7 O13       -32.8871   49.9273   42.0106 O.3         1 MOL      -0.2508
      8 C16       -32.0749   49.1334   41.2666 C.2         1 MOL       0.3241
      9 O18       -31.0703   48.4400   41.8576 O.2         1 MOL      -0.3773
     10 N11       -30.1419   54.2688   44.1057 N.pl3       1 MOL      -0.3383
     11 C5        -30.1988   52.9259   44.0460 C.ar        1 MOL       0.0282
     12 N         -32.3566   49.0074   39.9500 N.am        1 MOL      -0.2380
     13 CA        -31.6302   48.1894   39.0153 C.3         1 MOL       0.1484
     14 C         -31.3883   48.9666   37.7968 C.2         1 MOL       0.2046
     15 O         -32.3352   49.5388   37.2677 O.2         1 MOL      -0.3944
     16 CB        -32.4303   46.8830   38.7375 C.3         1 MOL       0.0400
     17 CG        -31.5898   45.8236   38.1166 C.ar        1 MOL      -0.0004
     18 CD1       -30.4475   45.3429   38.7988 C.ar        1 MOL      -0.0239
     19 CD2       -31.8831   45.3070   36.8316 C.ar        1 MOL      -0.0239
     20 CE1       -29.6143   44.3769   38.2074 C.ar        1 MOL       0.0115
     21 CE2       -31.0402   44.3545   36.2351 C.ar        1 MOL       0.0115
     22 CZ        -29.8786   43.9075   36.9058 C.ar        1 MOL       0.1728
     23 OH        -29.0337   42.9934   36.3340 O.3         1 MOL      -0.2040
     24 P         -27.8140   43.6525   35.6258 P.3         1 MOL       0.1348
     25 O1P       -27.0293   42.5666   35.0980 O.co2       1 MOL      -0.6653
     26 O2P       -26.9775   44.3625   36.5604 O.co2       1 MOL      -0.6653
     27 O3P       -28.1929   44.5058   34.5291 O.co2       1 MOL      -0.6653
     28 N         -30.1686   49.0237   37.2642 N.am        1 MOL      -0.2712
     29 CA        -29.7265   49.7124   36.0597 C.3         1 MOL       0.1461
     30 CH3       -28.1615   49.6045   36.0959 C.3         1 MOL      -0.0287
     31 C         -30.1678   51.1232   36.1107 C.2         1 MOL       0.2294
     32 O         -31.0897   51.4923   35.3899 O.2         1 MOL      -0.3416
     33 CB        -30.2656   48.9157   34.8019 C.3         1 MOL       0.0325
     34 CG        -30.1136   49.4167   33.3940 C.ar        1 MOL      -0.0034
     35 CD1       -29.5882   50.6842   33.0310 C.ar        1 MOL      -0.0242
     36 CD2       -30.5912   48.5850   32.3485 C.ar        1 MOL      -0.0242
     37 CE1       -29.5791   51.1118   31.6906 C.ar        1 MOL       0.0115
     38 CE2       -30.5984   49.0163   31.0093 C.ar        1 MOL       0.0115
     39 CZ        -30.1353   50.3064   30.6765 C.ar        1 MOL       0.1728
     40 OH        -30.1593   50.7265   29.3711 O.3         1 MOL      -0.2040
     41 P         -31.3503   51.6872   29.0635 P.3         1 MOL       0.1348
     42 O1P       -31.2511   52.0787   27.6813 O.co2       1 MOL      -0.6653
     43 O2P       -31.2945   52.9000   29.8401 O.co2       1 MOL      -0.6653
     44 O3P       -32.6341   51.0576   29.2389 O.co2       1 MOL      -0.6653
     45 N         -29.6617   51.9783   37.0031 N.am        1 MOL      -0.2663
     46 CA        -29.9531   53.3884   37.1125 C.3         1 MOL       0.1112
     47 C         -28.6749   54.1249   36.9649 C.2         1 MOL       0.0626
     48 O         -28.3894   54.8287   35.8452 O.co2       1 MOL      -0.5664
     49 CB        -30.7768   53.6953   38.4115 C.3         1 MOL       0.0720
     50 CG        -30.0694   54.3138   39.5192 C.2         1 MOL       0.1774
     51 OD1       -29.6574   55.4620   39.4081 O.2         1 MOL      -0.3971
     52 ND2       -29.8652   53.6940   40.6599 N.am        1 MOL      -0.3007
     53 OXT       -27.7153   54.0582   37.9145 O.co2       1 MOL      -0.5664
     54 H1        -28.2648   50.2054   44.4593 H           1 MOL       0.0566
     55 H2        -30.3527   49.0940   44.0008 H           1 MOL       0.0448
     56 H3        -32.2530   52.8393   43.5605 H           1 MOL       0.0451
     57 H4        -28.1452   52.6267   44.4913 H           1 MOL       0.0459
     58 H5        -33.6172   50.8184   43.7162 H           1 MOL       0.0774
     59 H6        -32.8758   49.2464   43.9662 H           1 MOL       0.0774
     60 H7        -30.9446   54.7969   43.9597 H           1 MOL       0.1718
     61 H8        -29.3036   54.7087   44.3130 H           1 MOL       0.1718
     62 H9        -33.1498   49.4687   39.6182 H           1 MOL       0.1902
     63 H10       -30.6604   47.9070   39.4472 H           1 MOL       0.0839
     64 H11       -33.3011   47.1040   38.1135 H           1 MOL       0.0584
     65 H12       -32.8206   46.4922   39.6817 H           1 MOL       0.0584
     66 H13       -30.2130   45.6940   39.7333 H           1 MOL       0.0703
     67 H14       -32.6986   45.6433   36.3151 H           1 MOL       0.0703
     68 H15       -28.7898   44.0405   38.7146 H           1 MOL       0.0736
     69 H16       -31.2556   44.0042   35.2986 H           1 MOL       0.0736
     70 H17       -29.4820   48.5167   37.7373 H           1 MOL       0.1842
     71 H18       -27.6888   50.1200   35.2607 H           1 MOL       0.0244
     72 H19       -27.8506   48.5565   36.0576 H           1 MOL       0.0244
     73 H20       -27.7559   50.0297   37.0176 H           1 MOL       0.0244
     74 H21       -31.3432   48.7938   34.9423 H           1 MOL       0.0549
     75 H22       -29.8450   47.9102   34.8319 H           1 MOL       0.0549
     76 H23       -29.2340   51.3340   33.7334 H           1 MOL       0.0703
     77 H24       -30.9724   47.6548   32.5657 H           1 MOL       0.0703
     78 H25       -29.2126   52.0394   31.4584 H           1 MOL       0.0736
     79 H26       -30.9756   48.4011   30.2847 H           1 MOL       0.0736
     80 H27       -29.0079   51.6256   37.6277 H           1 MOL       0.1883
     81 H28       -30.5842   53.7074   36.2781 H           1 MOL       0.0754
     82 H29       -31.2549   52.7731   38.7608 H           1 MOL       0.0544
     83 H30       -31.6054   54.3677   38.1513 H           1 MOL       0.0544
     84 H31       -29.4002   54.1432   41.3812 H           1 MOL       0.1814
     85 H32       -30.1713   52.7814   40.7836 H           1 MOL       0.1814
@<TRIPOS>BOND
     1     1     5  ar
     2     2     1  ar
     3     3     2  ar
     4     6     3   1
     5     3     4  ar
     6     4    11  ar
     7    11    10   1
     8    11     5  ar
     9     7     6   1
    10     8     7   1
    11     8     9   2
    12    13    12   1
    13    13    16   1
    14    14    13   1
    15    14    15   2
    16    16    17   1
    17    17    19  ar
    18    17    18  ar
    19    18    20  ar
    20    20    22  ar
    21    22    23   1
    22    21    22  ar
    23    19    21  ar
    24    23    24   1
    25    24    27  ar
    26    24    26  ar
    27    24    25  ar
    28    29    28   1
    29    29    33   1
    30    31    29   1
    31    29    30   1
    32    31    32   2
    33    33    34   1
    34    34    36  ar
    35    34    35  ar
    36    35    37  ar
    37    37    39  ar
    38    39    40   1
    39    38    39  ar
    40    36    38  ar
    41    40    41   1
    42    41    44  ar
    43    41    43  ar
    44    41    42  ar
    45    46    47   1
    46    46    49   1
    47    45    46   1
    48    49    50   1
    49    50    51   2
    50    50    52  am
    51    47    53  ar
    52    47    48  ar
    53    28    14  am
    54    12     8  am
    55    31    45  am
    56     1    54   1
    57     2    55   1
    58     4    56   1
    59     5    57   1
    60     6    58   1
    61     6    59   1
    62    10    60   1
    63    10    61   1
    64    12    62   1
    65    13    63   1
    66    16    64   1
    67    16    65   1
    68    18    66   1
    69    19    67   1
    70    20    68   1
    71    21    69   1
    72    28    70   1
    73    30    71   1
    74    30    72   1
    75    30    73   1
    76    33    74   1
    77    33    75   1
    78    35    76   1
    79    36    77   1
    80    37    78   1
    81    38    79   1
    82    45    80   1
    83    46    81   1
    84    49    82   1
    85    49    83   1
    86    52    84   1
    87    52    85   1
@<TRIPOS>SUBSTRUCTURE
     1  MOL      1

