@<TRIPOS>MOLECULE
1jyq_ligand_059
    85    87
SMALL
GAST_HUCK
****
This file was generated by PARSER (from files_GN.cpp)

@<TRIPOS>ATOM
      1 C1        -33.5186   44.3669   31.3127 C.ar        1 MOL      -0.0801
      2 C2        -33.0123   43.4253   32.2286 C.ar        1 MOL      -0.0711
      3 C3        -33.3059   43.5291   33.6111 C.ar        1 MOL      -0.0250
      4 C4        -34.1415   44.5838   34.0460 C.ar        1 MOL      -0.0414
      5 C6        -34.3292   45.4224   31.7637 C.ar        1 MOL      -0.0516
      6 C12       -32.7337   42.5650   34.5922 C.3         1 MOL       0.1084
      7 O13       -32.0769   43.2152   35.6919 O.3         1 MOL      -0.2508
      8 C16       -31.0127   44.0621   35.6484 C.2         1 MOL       0.3241
      9 O18       -30.5107   44.4210   34.4449 O.2         1 MOL      -0.3773
     10 N11       -35.4202   46.5436   33.5632 N.pl3       1 MOL      -0.3383
     11 C5        -34.6468   45.5345   33.1328 C.ar        1 MOL       0.0282
     12 N         -30.5991   44.6002   36.8199 N.am        1 MOL      -0.2380
     13 CA        -29.6588   45.6714   37.0465 C.3         1 MOL       0.1484
     14 C         -30.0287   46.9508   36.4366 C.2         1 MOL       0.2046
     15 O         -30.7033   46.9725   35.4167 O.2         1 MOL      -0.3944
     16 CB        -28.1578   45.2642   36.8463 C.3         1 MOL       0.0400
     17 CG        -27.7631   44.8722   35.4635 C.ar        1 MOL      -0.0004
     18 CD1       -27.2325   43.5843   35.1999 C.ar        1 MOL      -0.0239
     19 CD2       -27.9348   45.7601   34.3751 C.ar        1 MOL      -0.0239
     20 CE1       -26.9634   43.1737   33.8820 C.ar        1 MOL       0.0115
     21 CE2       -27.7000   45.3362   33.0554 C.ar        1 MOL       0.0115
     22 CZ        -27.2608   44.0226   32.7906 C.ar        1 MOL       0.1728
     23 OH        -27.1148   43.6342   31.4826 O.3         1 MOL      -0.2040
     24 P         -28.3225   42.8369   30.9029 P.3         1 MOL       0.1348
     25 O1P       -28.1983   41.4392   31.2424 O.co2       1 MOL      -0.6653
     26 O2P       -28.2587   42.8974   29.4647 O.co2       1 MOL      -0.6653
     27 O3P       -29.6285   43.3055   31.3030 O.co2       1 MOL      -0.6653
     28 N         -29.6687   48.0782   37.0423 N.am        1 MOL      -0.2712
     29 CA        -29.9669   49.4621   36.6997 C.3         1 MOL       0.1461
     30 CH3       -29.5662   49.6990   35.2031 C.3         1 MOL      -0.0287
     31 C         -29.1514   50.3767   37.5280 C.2         1 MOL       0.2294
     32 O         -28.4425   49.9379   38.4275 O.2         1 MOL      -0.3416
     33 CB        -31.5043   49.7549   36.9225 C.3         1 MOL       0.0325
     34 CG        -32.0433   49.3221   38.2487 C.ar        1 MOL      -0.0034
     35 CD1       -32.9425   48.2354   38.3495 C.ar        1 MOL      -0.0242
     36 CD2       -31.6552   49.9804   39.4365 C.ar        1 MOL      -0.0242
     37 CE1       -33.3958   47.7874   39.6046 C.ar        1 MOL       0.0115
     38 CE2       -32.1001   49.5318   40.6917 C.ar        1 MOL       0.0115
     39 CZ        -32.9430   48.4103   40.7852 C.ar        1 MOL       0.1728
     40 OH        -33.3583   47.9943   42.0261 O.3         1 MOL      -0.2040
     41 P         -32.4782   46.8598   42.6394 P.3         1 MOL       0.1348
     42 O1P       -31.0827   46.9377   42.2837 O.co2       1 MOL      -0.6653
     43 O2P       -32.9924   45.5595   42.2904 O.co2       1 MOL      -0.6653
     44 O3P       -32.5536   46.9749   44.0752 O.co2       1 MOL      -0.6653
     45 N         -29.2296   51.6947   37.3471 N.am        1 MOL      -0.2663
     46 CA        -28.6000   52.7294   38.1270 C.3         1 MOL       0.1112
     47 C         -29.2461   54.0250   37.8139 C.2         1 MOL       0.0626
     48 O         -29.5086   54.3969   36.5426 O.co2       1 MOL      -0.5664
     49 CB        -27.0488   52.7854   37.9621 C.3         1 MOL       0.0720
     50 CG        -26.5708   53.3254   36.7000 C.2         1 MOL       0.1774
     51 OD1       -26.8099   54.4879   36.3972 O.2         1 MOL      -0.3971
     52 ND2       -25.8400   52.6053   35.8783 N.am        1 MOL      -0.3007
     53 OXT       -29.5542   54.9074   38.7922 O.co2       1 MOL      -0.5664
     54 H1        -33.2916   44.2816   30.3179 H           1 MOL       0.0566
     55 H2        -32.4298   42.6599   31.8787 H           1 MOL       0.0448
     56 H3        -34.3711   44.6747   35.0421 H           1 MOL       0.0451
     57 H4        -34.6863   46.1049   31.0901 H           1 MOL       0.0459
     58 H5        -32.0255   41.8847   34.1148 H           1 MOL       0.0774
     59 H6        -33.5479   41.9636   35.0025 H           1 MOL       0.0774
     60 H7        -35.6393   46.6229   34.5058 H           1 MOL       0.1718
     61 H8        -35.7625   47.1991   32.9307 H           1 MOL       0.1718
     62 H9        -31.0652   44.2728   37.6082 H           1 MOL       0.1902
     63 H10       -29.7590   45.8453   38.1211 H           1 MOL       0.0839
     64 H11       -27.9582   44.4406   37.5364 H           1 MOL       0.0584
     65 H12       -27.5102   46.0839   37.1634 H           1 MOL       0.0584
     66 H13       -27.0564   42.9300   35.9688 H           1 MOL       0.0703
     67 H14       -28.2718   46.7131   34.5304 H           1 MOL       0.0703
     68 H15       -26.6045   42.2320   33.7117 H           1 MOL       0.0736
     69 H16       -27.8761   45.9764   32.2804 H           1 MOL       0.0736
     70 H17       -29.1687   47.9446   37.8611 H           1 MOL       0.1842
     71 H18       -29.7867   50.7190   34.8883 H           1 MOL       0.0244
     72 H19       -30.1184   49.0465   34.5329 H           1 MOL       0.0244
     73 H20       -28.5019   49.5081   35.0582 H           1 MOL       0.0244
     74 H21       -32.0752   49.2712   36.1258 H           1 MOL       0.0549
     75 H22       -31.7152   50.8208   36.7980 H           1 MOL       0.0549
     76 H23       -33.2620   47.7462   37.5084 H           1 MOL       0.0703
     77 H24       -31.0389   50.7946   39.4026 H           1 MOL       0.0703
     78 H25       -34.0416   47.0004   39.6548 H           1 MOL       0.0736
     79 H26       -31.7952   50.0136   41.5397 H           1 MOL       0.0736
     80 H27       -29.8366   51.9933   36.6533 H           1 MOL       0.1883
     81 H28       -28.8027   52.5222   39.1816 H           1 MOL       0.0754
     82 H29       -26.6528   51.7766   38.0952 H           1 MOL       0.0544
     83 H30       -26.6247   53.3819   38.7751 H           1 MOL       0.0544
     84 H31       -25.5152   52.9949   35.0488 H           1 MOL       0.1814
     85 H32       -25.6241   51.6830   36.0910 H           1 MOL       0.1814
@<TRIPOS>BOND
     1     1     5  ar
     2     2     1  ar
     3     3     2  ar
     4     6     3   1
     5     3     4  ar
     6     4    11  ar
     7    11    10   1
     8    11     5  ar
     9     7     6   1
    10     8     7   1
    11     8     9   2
    12    13    12   1
    13    13    16   1
    14    14    13   1
    15    14    15   2
    16    16    17   1
    17    17    19  ar
    18    17    18  ar
    19    18    20  ar
    20    20    22  ar
    21    22    23   1
    22    21    22  ar
    23    19    21  ar
    24    23    24   1
    25    24    27  ar
    26    24    26  ar
    27    24    25  ar
    28    29    28   1
    29    29    33   1
    30    31    29   1
    31    29    30   1
    32    31    32   2
    33    33    34   1
    34    34    36  ar
    35    34    35  ar
    36    35    37  ar
    37    37    39  ar
    38    39    40   1
    39    38    39  ar
    40    36    38  ar
    41    40    41   1
    42    41    44  ar
    43    41    43  ar
    44    41    42  ar
    45    46    47   1
    46    46    49   1
    47    45    46   1
    48    49    50   1
    49    50    51   2
    50    50    52  am
    51    47    53  ar
    52    47    48  ar
    53    28    14  am
    54    12     8  am
    55    31    45  am
    56     1    54   1
    57     2    55   1
    58     4    56   1
    59     5    57   1
    60     6    58   1
    61     6    59   1
    62    10    60   1
    63    10    61   1
    64    12    62   1
    65    13    63   1
    66    16    64   1
    67    16    65   1
    68    18    66   1
    69    19    67   1
    70    20    68   1
    71    21    69   1
    72    28    70   1
    73    30    71   1
    74    30    72   1
    75    30    73   1
    76    33    74   1
    77    33    75   1
    78    35    76   1
    79    36    77   1
    80    37    78   1
    81    38    79   1
    82    45    80   1
    83    46    81   1
    84    49    82   1
    85    49    83   1
    86    52    84   1
    87    52    85   1
@<TRIPOS>SUBSTRUCTURE
     1  MOL      1

