@<TRIPOS>MOLECULE
1jyq_ligand_065
    85    87
SMALL
GAST_HUCK
****
This file was generated by PARSER (from files_GN.cpp)

@<TRIPOS>ATOM
      1 C1        -31.2849   41.3731   40.3625 C.ar        1 MOL      -0.0801
      2 C2        -30.4453   42.2851   39.6994 C.ar        1 MOL      -0.0711
      3 C3        -29.0361   42.2058   39.8249 C.ar        1 MOL      -0.0250
      4 C4        -28.4943   41.1902   40.6450 C.ar        1 MOL      -0.0414
      5 C6        -30.7303   40.3620   41.1635 C.ar        1 MOL      -0.0516
      6 C12       -28.1218   43.1350   39.1061 C.3         1 MOL       0.1084
      7 O13       -28.8189   44.1867   38.4164 O.3         1 MOL      -0.2508
      8 C16       -29.1204   44.2964   37.0928 C.2         1 MOL       0.3241
      9 O18       -28.7593   43.3225   36.2206 O.2         1 MOL      -0.3773
     10 N11       -28.8082   39.3243   42.1135 N.pl3       1 MOL      -0.3383
     11 C5        -29.3334   40.2726   41.3193 C.ar        1 MOL       0.0282
     12 N         -29.8738   45.3561   36.7153 N.am        1 MOL      -0.2380
     13 CA        -30.3994   45.6090   35.3986 C.3         1 MOL       0.1484
     14 C         -30.9537   46.9673   35.3178 C.2         1 MOL       0.2046
     15 O         -32.0406   47.1536   34.7882 O.2         1 MOL      -0.3944
     16 CB        -31.3808   44.4672   34.9373 C.3         1 MOL       0.0400
     17 CG        -32.5515   44.2113   35.8347 C.ar        1 MOL      -0.0004
     18 CD1       -32.4613   43.2409   36.8594 C.ar        1 MOL      -0.0239
     19 CD2       -33.7911   44.8730   35.6558 C.ar        1 MOL      -0.0239
     20 CE1       -33.5558   42.9658   37.6996 C.ar        1 MOL       0.0115
     21 CE2       -34.8882   44.5991   36.4983 C.ar        1 MOL       0.0115
     22 CZ        -34.7695   43.6649   37.5482 C.ar        1 MOL       0.1728
     23 OH        -35.8401   43.3095   38.3275 O.3         1 MOL      -0.2040
     24 P         -36.0777   44.1958   39.5809 P.3         1 MOL       0.1348
     25 O1P       -34.9038   44.4074   40.3997 O.co2       1 MOL      -0.6653
     26 O2P       -37.0315   43.5093   40.4248 O.co2       1 MOL      -0.6653
     27 O3P       -36.6708   45.4700   39.2410 O.co2       1 MOL      -0.6653
     28 N         -30.2453   48.0171   35.7378 N.am        1 MOL      -0.2712
     29 CA        -30.5837   49.4379   35.6981 C.3         1 MOL       0.1461
     30 CH3       -30.4628   49.9253   34.2125 C.3         1 MOL      -0.0287
     31 C         -29.6147   50.2101   36.5066 C.2         1 MOL       0.2294
     32 O         -28.7436   49.6341   37.1496 O.2         1 MOL      -0.3416
     33 CB        -32.0451   49.6898   36.2432 C.3         1 MOL       0.0325
     34 CG        -32.3967   48.9977   37.5227 C.ar        1 MOL      -0.0034
     35 CD1       -33.3971   47.9967   37.5550 C.ar        1 MOL      -0.0242
     36 CD2       -31.7646   49.3476   38.7407 C.ar        1 MOL      -0.0242
     37 CE1       -33.7097   47.3225   38.7493 C.ar        1 MOL       0.0115
     38 CE2       -32.0819   48.6790   39.9359 C.ar        1 MOL       0.0115
     39 CZ        -33.0300   47.6336   39.9431 C.ar        1 MOL       0.1728
     40 OH        -33.3801   47.0117   41.1146 O.3         1 MOL      -0.2040
     41 P         -32.3288   45.9919   41.6399 P.3         1 MOL       0.1348
     42 O1P       -31.0198   46.5780   41.8035 O.co2       1 MOL      -0.6653
     43 O2P       -32.2318   44.8264   40.8003 O.co2       1 MOL      -0.6653
     44 O3P       -32.7629   45.5434   42.9404 O.co2       1 MOL      -0.6653
     45 N         -29.7261   51.5333   36.6147 N.am        1 MOL      -0.2663
     46 CA        -28.9865   52.3879   37.4971 C.3         1 MOL       0.1112
     47 C         -29.7136   53.6675   37.6357 C.2         1 MOL       0.0626
     48 O         -30.2951   54.0258   38.8012 O.co2       1 MOL      -0.5664
     49 CB        -27.4977   52.5891   37.0717 C.3         1 MOL       0.0720
     50 CG        -27.2591   53.6192   36.0733 C.2         1 MOL       0.1774
     51 OD1       -27.1487   54.7884   36.4114 O.2         1 MOL      -0.3971
     52 ND2       -27.1783   53.3469   34.7922 N.am        1 MOL      -0.3007
     53 OXT       -29.8577   54.4912   36.5708 O.co2       1 MOL      -0.5664
     54 H1        -32.2983   41.4449   40.2574 H           1 MOL       0.0566
     55 H2        -30.8751   43.0029   39.1156 H           1 MOL       0.0448
     56 H3        -27.4798   41.1098   40.7501 H           1 MOL       0.0451
     57 H4        -31.3504   39.6945   41.6316 H           1 MOL       0.0459
     58 H5        -27.5116   42.5506   38.4118 H           1 MOL       0.0774
     59 H6        -27.4522   43.6074   39.8278 H           1 MOL       0.0774
     60 H7        -27.8496   39.2805   42.2444 H           1 MOL       0.1718
     61 H8        -29.3900   38.7043   42.5841 H           1 MOL       0.1718
     62 H9        -30.0807   46.0065   37.4071 H           1 MOL       0.1902
     63 H10       -29.5524   45.6052   34.7060 H           1 MOL       0.0839
     64 H11       -30.8095   43.5415   34.8360 H           1 MOL       0.0584
     65 H12       -31.7389   44.6827   33.9257 H           1 MOL       0.0584
     66 H13       -31.5998   42.7043   36.9874 H           1 MOL       0.0703
     67 H14       -33.9144   45.5437   34.8935 H           1 MOL       0.0703
     68 H15       -33.4732   42.2402   38.4147 H           1 MOL       0.0736
     69 H16       -35.7813   45.0733   36.3371 H           1 MOL       0.0736
     70 H17       -29.3884   47.7981   36.1359 H           1 MOL       0.1842
     71 H18       -30.7158   50.9834   34.1185 H           1 MOL       0.0244
     72 H19       -31.1384   49.3789   33.5550 H           1 MOL       0.0244
     73 H20       -29.4469   49.7820   33.8377 H           1 MOL       0.0244
     74 H21       -32.7576   49.3903   35.4714 H           1 MOL       0.0549
     75 H22       -32.2218   50.7588   36.3850 H           1 MOL       0.0549
     76 H23       -33.9184   47.7552   36.7080 H           1 MOL       0.0703
     77 H24       -31.0854   50.1080   38.7709 H           1 MOL       0.0703
     78 H25       -34.4415   46.6113   38.7503 H           1 MOL       0.0736
     79 H26       -31.6198   48.9542   40.8050 H           1 MOL       0.0736
     80 H27       -30.4494   51.9492   36.1220 H           1 MOL       0.1883
     81 H28       -28.9773   51.9208   38.4865 H           1 MOL       0.0754
     82 H29       -27.0857   51.6423   36.7038 H           1 MOL       0.0544
     83 H30       -26.9189   52.8421   37.9657 H           1 MOL       0.0544
     84 H31       -27.0105   54.0663   34.1551 H           1 MOL       0.1814
     85 H32       -27.2713   52.4329   34.4715 H           1 MOL       0.1814
@<TRIPOS>BOND
     1     1     5  ar
     2     2     1  ar
     3     3     2  ar
     4     6     3   1
     5     3     4  ar
     6     4    11  ar
     7    11    10   1
     8    11     5  ar
     9     7     6   1
    10     8     7   1
    11     8     9   2
    12    13    12   1
    13    13    16   1
    14    14    13   1
    15    14    15   2
    16    16    17   1
    17    17    19  ar
    18    17    18  ar
    19    18    20  ar
    20    20    22  ar
    21    22    23   1
    22    21    22  ar
    23    19    21  ar
    24    23    24   1
    25    24    27  ar
    26    24    26  ar
    27    24    25  ar
    28    29    28   1
    29    29    33   1
    30    31    29   1
    31    29    30   1
    32    31    32   2
    33    33    34   1
    34    34    36  ar
    35    34    35  ar
    36    35    37  ar
    37    37    39  ar
    38    39    40   1
    39    38    39  ar
    40    36    38  ar
    41    40    41   1
    42    41    44  ar
    43    41    43  ar
    44    41    42  ar
    45    46    47   1
    46    46    49   1
    47    45    46   1
    48    49    50   1
    49    50    51   2
    50    50    52  am
    51    47    53  ar
    52    47    48  ar
    53    28    14  am
    54    12     8  am
    55    31    45  am
    56     1    54   1
    57     2    55   1
    58     4    56   1
    59     5    57   1
    60     6    58   1
    61     6    59   1
    62    10    60   1
    63    10    61   1
    64    12    62   1
    65    13    63   1
    66    16    64   1
    67    16    65   1
    68    18    66   1
    69    19    67   1
    70    20    68   1
    71    21    69   1
    72    28    70   1
    73    30    71   1
    74    30    72   1
    75    30    73   1
    76    33    74   1
    77    33    75   1
    78    35    76   1
    79    36    77   1
    80    37    78   1
    81    38    79   1
    82    45    80   1
    83    46    81   1
    84    49    82   1
    85    49    83   1
    86    52    84   1
    87    52    85   1
@<TRIPOS>SUBSTRUCTURE
     1  MOL      1

