@<TRIPOS>MOLECULE
1jyq_ligand_084
    85    87
SMALL
GAST_HUCK
****
This file was generated by PARSER (from files_GN.cpp)

@<TRIPOS>ATOM
      1 C1        -36.0160   42.1377   34.4776 C.ar        1 MOL      -0.0801
      2 C2        -34.8746   41.8084   35.2329 C.ar        1 MOL      -0.0711
      3 C3        -34.0769   42.8244   35.8116 C.ar        1 MOL      -0.0250
      4 C4        -34.4498   44.1740   35.6149 C.ar        1 MOL      -0.0414
      5 C6        -36.3689   43.4844   34.2831 C.ar        1 MOL      -0.0516
      6 C12       -32.8924   42.5065   36.6473 C.3         1 MOL       0.1084
      7 O13       -31.7291   43.1964   36.1595 O.3         1 MOL      -0.2508
      8 C16       -31.0623   44.2165   36.7636 C.2         1 MOL       0.3241
      9 O18       -31.4898   44.7223   37.9460 O.2         1 MOL      -0.3773
     10 N11       -35.9116   45.7958   34.6467 N.pl3       1 MOL      -0.3383
     11 C5        -35.5831   44.5080   34.8465 C.ar        1 MOL       0.0282
     12 N         -29.9848   44.7342   36.1332 N.am        1 MOL      -0.2380
     13 CA        -29.2340   45.8773   36.5754 C.3         1 MOL       0.1484
     14 C         -29.8378   47.1517   36.1824 C.2         1 MOL       0.2046
     15 O         -30.5050   47.2145   35.1579 O.2         1 MOL      -0.3944
     16 CB        -27.7458   45.7365   36.1236 C.3         1 MOL       0.0400
     17 CG        -27.4541   46.1511   34.7180 C.ar        1 MOL      -0.0004
     18 CD1       -27.4901   45.2143   33.6586 C.ar        1 MOL      -0.0239
     19 CD2       -27.1201   47.4933   34.4197 C.ar        1 MOL      -0.0239
     20 CE1       -27.2217   45.6148   32.3364 C.ar        1 MOL       0.0115
     21 CE2       -26.8618   47.8959   33.0968 C.ar        1 MOL       0.0115
     22 CZ        -26.9302   46.9635   32.0417 C.ar        1 MOL       0.1728
     23 OH        -26.6305   47.3592   30.7646 O.3         1 MOL      -0.2040
     24 P         -27.8611   47.6130   29.8361 P.3         1 MOL       0.1348
     25 O1P       -27.7130   46.8273   28.6379 O.co2       1 MOL      -0.6653
     26 O2P       -27.8205   48.9850   29.4049 O.co2       1 MOL      -0.6653
     27 O3P       -29.1686   47.3625   30.3851 O.co2       1 MOL      -0.6653
     28 N         -29.6233   48.2251   36.9399 N.am        1 MOL      -0.2712
     29 CA        -30.0414   49.6056   36.7416 C.3         1 MOL       0.1461
     30 CH3       -29.7359   50.0173   35.2580 C.3         1 MOL      -0.0287
     31 C         -29.2491   50.5003   37.6234 C.2         1 MOL       0.2294
     32 O         -28.4662   50.0395   38.4489 O.2         1 MOL      -0.3416
     33 CB        -31.5845   49.7649   37.0254 C.3         1 MOL       0.0325
     34 CG        -32.0719   49.1888   38.3142 C.ar        1 MOL      -0.0034
     35 CD1       -32.8258   47.9890   38.3380 C.ar        1 MOL      -0.0242
     36 CD2       -31.8116   49.8452   39.5400 C.ar        1 MOL      -0.0242
     37 CE1       -33.2769   47.4442   39.5544 C.ar        1 MOL       0.0115
     38 CE2       -32.2615   49.3003   40.7566 C.ar        1 MOL       0.0115
     39 CZ        -32.9759   48.0847   40.7750 C.ar        1 MOL       0.1728
     40 OH        -33.4185   47.5899   41.9734 O.3         1 MOL      -0.2040
     41 P         -32.4095   46.6375   42.6824 P.3         1 MOL       0.1348
     42 O1P       -31.0264   46.8831   42.3528 O.co2       1 MOL      -0.6653
     43 O2P       -32.7255   45.2541   42.4219 O.co2       1 MOL      -0.6653
     44 O3P       -32.5508   46.8360   44.1037 O.co2       1 MOL      -0.6653
     45 N         -29.3661   51.8258   37.5253 N.am        1 MOL      -0.2663
     46 CA        -28.6383   52.8466   38.2312 C.3         1 MOL       0.1112
     47 C         -29.2213   54.1617   37.8643 C.2         1 MOL       0.0626
     48 O         -29.5131   55.0911   38.8005 O.co2       1 MOL      -0.5664
     49 CB        -27.0962   52.7778   37.9725 C.3         1 MOL       0.0720
     50 CG        -26.6568   53.2502   36.6718 C.2         1 MOL       0.1774
     51 OD1       -26.8146   54.4225   36.3631 O.2         1 MOL      -0.3971
     52 ND2       -26.1374   52.4410   35.7764 N.am        1 MOL      -0.3007
     53 OXT       -29.4878   54.4561   36.5706 O.co2       1 MOL      -0.5664
     54 H1        -36.5895   41.3975   34.0658 H           1 MOL       0.0566
     55 H2        -34.6369   40.8226   35.3631 H           1 MOL       0.0448
     56 H3        -33.8879   44.9230   36.0267 H           1 MOL       0.0451
     57 H4        -37.1979   43.7145   33.7287 H           1 MOL       0.0459
     58 H5        -32.6688   41.4372   36.6422 H           1 MOL       0.0774
     59 H6        -33.1210   42.7781   37.6812 H           1 MOL       0.0774
     60 H7        -35.3671   46.5025   35.0271 H           1 MOL       0.1718
     61 H8        -36.6898   46.0213   34.1126 H           1 MOL       0.1718
     62 H9        -29.7315   44.3321   35.2900 H           1 MOL       0.1902
     63 H10       -29.2229   45.8538   37.6706 H           1 MOL       0.0839
     64 H11       -27.4320   44.6971   36.2631 H           1 MOL       0.0584
     65 H12       -27.1242   46.3172   36.8123 H           1 MOL       0.0584
     66 H13       -27.6948   44.2294   33.8429 H           1 MOL       0.0703
     67 H14       -27.0637   48.1877   35.1678 H           1 MOL       0.0703
     68 H15       -27.2603   44.9283   31.5804 H           1 MOL       0.0736
     69 H16       -26.6363   48.8746   32.9027 H           1 MOL       0.0736
     70 H17       -29.0986   48.0541   37.7396 H           1 MOL       0.1842
     71 H18       -30.0996   51.0226   35.0397 H           1 MOL       0.0244
     72 H19       -30.2249   49.3522   34.5470 H           1 MOL       0.0244
     73 H20       -28.6628   49.9951   35.0644 H           1 MOL       0.0244
     74 H21       -32.1386   49.3027   36.2039 H           1 MOL       0.0549
     75 H22       -31.8652   50.8205   36.9927 H           1 MOL       0.0549
     76 H23       -33.0512   47.4987   37.4679 H           1 MOL       0.0703
     77 H24       -31.3028   50.7327   39.5549 H           1 MOL       0.0703
     78 H25       -33.8099   46.5715   39.5540 H           1 MOL       0.0736
     79 H26       -32.0554   49.7851   41.6345 H           1 MOL       0.0736
     80 H27       -30.0165   52.1479   36.8822 H           1 MOL       0.1883
     81 H28       -28.8000   52.7004   39.3038 H           1 MOL       0.0754
     82 H29       -26.7527   51.7497   38.1020 H           1 MOL       0.0544
     83 H30       -26.5787   53.3549   38.7421 H           1 MOL       0.0544
     84 H31       -25.8643   52.7940   34.9179 H           1 MOL       0.1814
     85 H32       -26.0277   51.4965   35.9647 H           1 MOL       0.1814
@<TRIPOS>BOND
     1     1     5  ar
     2     2     1  ar
     3     3     2  ar
     4     6     3   1
     5     3     4  ar
     6     4    11  ar
     7    11    10   1
     8    11     5  ar
     9     7     6   1
    10     8     7   1
    11     8     9   2
    12    13    12   1
    13    13    16   1
    14    14    13   1
    15    14    15   2
    16    16    17   1
    17    17    19  ar
    18    17    18  ar
    19    18    20  ar
    20    20    22  ar
    21    22    23   1
    22    21    22  ar
    23    19    21  ar
    24    23    24   1
    25    24    27  ar
    26    24    26  ar
    27    24    25  ar
    28    29    28   1
    29    29    33   1
    30    31    29   1
    31    29    30   1
    32    31    32   2
    33    33    34   1
    34    34    36  ar
    35    34    35  ar
    36    35    37  ar
    37    37    39  ar
    38    39    40   1
    39    38    39  ar
    40    36    38  ar
    41    40    41   1
    42    41    44  ar
    43    41    43  ar
    44    41    42  ar
    45    46    47   1
    46    46    49   1
    47    45    46   1
    48    49    50   1
    49    50    51   2
    50    50    52  am
    51    47    53  ar
    52    47    48  ar
    53    28    14  am
    54    12     8  am
    55    31    45  am
    56     1    54   1
    57     2    55   1
    58     4    56   1
    59     5    57   1
    60     6    58   1
    61     6    59   1
    62    10    60   1
    63    10    61   1
    64    12    62   1
    65    13    63   1
    66    16    64   1
    67    16    65   1
    68    18    66   1
    69    19    67   1
    70    20    68   1
    71    21    69   1
    72    28    70   1
    73    30    71   1
    74    30    72   1
    75    30    73   1
    76    33    74   1
    77    33    75   1
    78    35    76   1
    79    36    77   1
    80    37    78   1
    81    38    79   1
    82    45    80   1
    83    46    81   1
    84    49    82   1
    85    49    83   1
    86    52    84   1
    87    52    85   1
@<TRIPOS>SUBSTRUCTURE
     1  MOL      1

