@<TRIPOS>MOLECULE
1jyq_ligand_041
    85    87
SMALL
GAST_HUCK
****
This file was generated by PARSER (from files_GN.cpp)

@<TRIPOS>ATOM
      1 C1        -33.0098   54.6769   37.6336 C.ar        1 MOL      -0.0801
      2 C2        -33.5471   53.7159   38.5080 C.ar        1 MOL      -0.0711
      3 C3        -33.9787   52.4574   38.0235 C.ar        1 MOL      -0.0250
      4 C4        -33.8847   52.1988   36.6369 C.ar        1 MOL      -0.0414
      5 C6        -32.9169   54.4043   36.2584 C.ar        1 MOL      -0.0516
      6 C12       -34.5266   51.4208   38.9369 C.3         1 MOL       0.1084
      7 O13       -33.9113   50.1443   38.7298 O.3         1 MOL      -0.2508
      8 C16       -32.6008   49.8232   38.8783 C.2         1 MOL       0.3241
      9 O18       -31.7115   50.7566   39.2878 O.2         1 MOL      -0.3773
     10 N11       -33.2738   52.9082   34.4371 N.pl3       1 MOL      -0.3383
     11 C5        -33.3496   53.1615   35.7570 C.ar        1 MOL       0.0282
     12 N         -32.2133   48.5686   38.5627 N.am        1 MOL      -0.2380
     13 CA        -30.8499   48.1089   38.4890 C.3         1 MOL       0.1484
     14 C         -30.0975   48.7947   37.4352 C.2         1 MOL       0.2046
     15 O         -30.6696   49.5685   36.6750 O.2         1 MOL      -0.3944
     16 CB        -30.8471   46.5692   38.2410 C.3         1 MOL       0.0400
     17 CG        -31.4016   45.8063   39.3910 C.ar        1 MOL      -0.0004
     18 CD1       -32.7672   45.4381   39.4347 C.ar        1 MOL      -0.0239
     19 CD2       -30.5618   45.4304   40.4648 C.ar        1 MOL      -0.0239
     20 CE1       -33.2767   44.7094   40.5248 C.ar        1 MOL       0.0115
     21 CE2       -31.0701   44.6930   41.5484 C.ar        1 MOL       0.0115
     22 CZ        -32.4363   44.3445   41.5970 C.ar        1 MOL       0.1728
     23 OH        -32.9186   43.5729   42.6194 O.3         1 MOL      -0.2040
     24 P         -33.5020   44.3854   43.8154 P.3         1 MOL       0.1348
     25 O1P       -33.6823   43.4696   44.9129 O.co2       1 MOL      -0.6653
     26 O2P       -34.7952   44.9505   43.5246 O.co2       1 MOL      -0.6653
     27 O3P       -32.6070   45.4182   44.2759 O.co2       1 MOL      -0.6653
     28 N         -28.8094   48.5252   37.2754 N.am        1 MOL      -0.2712
     29 CA        -27.9061   49.0178   36.2476 C.3         1 MOL       0.1461
     30 CH3       -26.4750   49.0234   36.8873 C.3         1 MOL      -0.0287
     31 C         -28.2536   50.4163   35.9107 C.2         1 MOL       0.2294
     32 O         -28.5133   50.7364   34.7615 O.2         1 MOL      -0.3416
     33 CB        -27.9660   47.9674   35.0617 C.3         1 MOL       0.0325
     34 CG        -27.2969   48.2506   33.7555 C.ar        1 MOL      -0.0034
     35 CD1       -28.0725   48.6512   32.6376 C.ar        1 MOL      -0.0242
     36 CD2       -25.9038   48.1004   33.5767 C.ar        1 MOL      -0.0242
     37 CE1       -27.4853   48.8598   31.3766 C.ar        1 MOL       0.0115
     38 CE2       -25.3146   48.2894   32.3116 C.ar        1 MOL       0.0115
     39 CZ        -26.1020   48.6568   31.1995 C.ar        1 MOL       0.1728
     40 OH        -25.5248   48.8565   29.9774 O.3         1 MOL      -0.2040
     41 P         -25.2944   47.5463   29.1611 P.3         1 MOL       0.1348
     42 O1P       -26.4902   47.0726   28.5066 O.co2       1 MOL      -0.6653
     43 O2P       -24.7412   46.4909   29.9656 O.co2       1 MOL      -0.6653
     44 O3P       -24.3372   47.8339   28.1209 O.co2       1 MOL      -0.6653
     45 N         -28.3468   51.3375   36.8702 N.am        1 MOL      -0.2663
     46 CA        -28.8034   52.6945   36.7113 C.3         1 MOL       0.1112
     47 C         -27.6941   53.6296   36.4127 C.2         1 MOL       0.0626
     48 O         -27.9385   54.7747   35.7428 O.co2       1 MOL      -0.5664
     49 CB        -29.6871   53.1626   37.9065 C.3         1 MOL       0.0720
     50 CG        -29.0374   54.0070   38.8908 C.2         1 MOL       0.1774
     51 OD1       -28.9313   55.2150   38.6805 O.2         1 MOL      -0.3971
     52 ND2       -28.5060   53.5344   40.0096 N.am        1 MOL      -0.3007
     53 OXT       -26.4768   53.4853   36.9906 O.co2       1 MOL      -0.5664
     54 H1        -32.7028   55.5833   37.9962 H           1 MOL       0.0566
     55 H2        -33.6103   53.9341   39.5038 H           1 MOL       0.0448
     56 H3        -34.1974   51.2961   36.2599 H           1 MOL       0.0451
     57 H4        -32.5462   55.1210   35.6264 H           1 MOL       0.0459
     58 H5        -35.5997   51.3185   38.7579 H           1 MOL       0.0774
     59 H6        -34.3938   51.6932   39.9840 H           1 MOL       0.0774
     60 H7        -33.5776   52.0574   34.0864 H           1 MOL       0.1718
     61 H8        -32.9140   53.5777   33.8310 H           1 MOL       0.1718
     62 H9        -32.9115   47.9550   38.2919 H           1 MOL       0.1902
     63 H10       -30.3633   48.3201   39.4457 H           1 MOL       0.0839
     64 H11       -29.8268   46.2121   38.0568 H           1 MOL       0.0584
     65 H12       -31.4118   46.3401   37.3309 H           1 MOL       0.0584
     66 H13       -33.3968   45.6907   38.6674 H           1 MOL       0.0703
     67 H14       -29.5668   45.6739   40.4517 H           1 MOL       0.0703
     68 H15       -34.2620   44.4391   40.5340 H           1 MOL       0.0736
     69 H16       -30.4422   44.4144   42.3033 H           1 MOL       0.0736
     70 H17       -28.4178   47.9047   37.9125 H           1 MOL       0.1842
     71 H18       -25.7415   49.4650   36.2091 H           1 MOL       0.0244
     72 H19       -26.1577   48.0083   37.1355 H           1 MOL       0.0244
     73 H20       -26.4656   49.6021   37.8157 H           1 MOL       0.0244
     74 H21       -29.0138   47.7653   34.8448 H           1 MOL       0.0549
     75 H22       -27.5946   47.0056   35.4136 H           1 MOL       0.0549
     76 H23       -29.0851   48.7764   32.7265 H           1 MOL       0.0703
     77 H24       -25.3075   47.8015   34.3509 H           1 MOL       0.0703
     78 H25       -28.0675   49.1513   30.5881 H           1 MOL       0.0736
     79 H26       -24.3066   48.1605   32.1896 H           1 MOL       0.0736
     80 H27       -28.1984   51.0408   37.7833 H           1 MOL       0.1883
     81 H28       -29.4691   52.7042   35.8391 H           1 MOL       0.0754
     82 H29       -30.1058   52.2925   38.4323 H           1 MOL       0.0544
     83 H30       -30.5470   53.7087   37.4963 H           1 MOL       0.0544
     84 H31       -28.0835   54.1419   40.6403 H           1 MOL       0.1814
     85 H32       -28.5581   52.5801   40.2093 H           1 MOL       0.1814
@<TRIPOS>BOND
     1     1     5  ar
     2     2     1  ar
     3     3     2  ar
     4     6     3   1
     5     3     4  ar
     6     4    11  ar
     7    11    10   1
     8    11     5  ar
     9     7     6   1
    10     8     7   1
    11     8     9   2
    12    13    12   1
    13    13    16   1
    14    14    13   1
    15    14    15   2
    16    16    17   1
    17    17    19  ar
    18    17    18  ar
    19    18    20  ar
    20    20    22  ar
    21    22    23   1
    22    21    22  ar
    23    19    21  ar
    24    23    24   1
    25    24    27  ar
    26    24    26  ar
    27    24    25  ar
    28    29    28   1
    29    29    33   1
    30    31    29   1
    31    29    30   1
    32    31    32   2
    33    33    34   1
    34    34    36  ar
    35    34    35  ar
    36    35    37  ar
    37    37    39  ar
    38    39    40   1
    39    38    39  ar
    40    36    38  ar
    41    40    41   1
    42    41    44  ar
    43    41    43  ar
    44    41    42  ar
    45    46    47   1
    46    46    49   1
    47    45    46   1
    48    49    50   1
    49    50    51   2
    50    50    52  am
    51    47    53  ar
    52    47    48  ar
    53    28    14  am
    54    12     8  am
    55    31    45  am
    56     1    54   1
    57     2    55   1
    58     4    56   1
    59     5    57   1
    60     6    58   1
    61     6    59   1
    62    10    60   1
    63    10    61   1
    64    12    62   1
    65    13    63   1
    66    16    64   1
    67    16    65   1
    68    18    66   1
    69    19    67   1
    70    20    68   1
    71    21    69   1
    72    28    70   1
    73    30    71   1
    74    30    72   1
    75    30    73   1
    76    33    74   1
    77    33    75   1
    78    35    76   1
    79    36    77   1
    80    37    78   1
    81    38    79   1
    82    45    80   1
    83    46    81   1
    84    49    82   1
    85    49    83   1
    86    52    84   1
    87    52    85   1
@<TRIPOS>SUBSTRUCTURE
     1  MOL      1

