@<TRIPOS>MOLECULE
1jyq_ligand_045
    85    87
SMALL
GAST_HUCK
****
This file was generated by PARSER (from files_GN.cpp)

@<TRIPOS>ATOM
      1 C1        -34.8477   47.6108   27.6658 C.ar        1 MOL      -0.0801
      2 C2        -33.4481   47.7579   27.7008 C.ar        1 MOL      -0.0711
      3 C3        -32.6720   47.6282   26.5228 C.ar        1 MOL      -0.0250
      4 C4        -33.3392   47.3553   25.3046 C.ar        1 MOL      -0.0414
      5 C6        -35.4943   47.3381   26.4487 C.ar        1 MOL      -0.0516
      6 C12       -31.2017   47.8198   26.5734 C.3         1 MOL       0.1084
      7 O13       -30.5611   46.8085   27.3680 O.3         1 MOL      -0.2508
      8 C16       -30.1997   46.9037   28.6763 C.2         1 MOL       0.3241
      9 O18       -30.5098   48.0102   29.3947 O.2         1 MOL      -0.3773
     10 N11       -35.3699   46.9640   24.1000 N.pl3       1 MOL      -0.3383
     11 C5        -34.7419   47.2119   25.2647 C.ar        1 MOL       0.0282
     12 N         -29.5621   45.8494   29.2390 N.am        1 MOL      -0.2380
     13 CA        -29.2369   45.7113   30.6344 C.3         1 MOL       0.1484
     14 C         -28.2866   46.7407   31.0732 C.2         1 MOL       0.2046
     15 O         -27.0774   46.5368   31.0455 O.2         1 MOL      -0.3944
     16 CB        -28.7537   44.2490   30.9080 C.3         1 MOL       0.0400
     17 CG        -28.7247   43.9029   32.3609 C.ar        1 MOL      -0.0004
     18 CD1       -29.9336   43.8444   33.0947 C.ar        1 MOL      -0.0239
     19 CD2       -27.5083   43.6524   33.0416 C.ar        1 MOL      -0.0239
     20 CE1       -29.9272   43.5503   34.4685 C.ar        1 MOL       0.0115
     21 CE2       -27.5005   43.3645   34.4194 C.ar        1 MOL       0.0115
     22 CZ        -28.7081   43.3407   35.1463 C.ar        1 MOL       0.1728
     23 OH        -28.7234   43.0242   36.4756 O.3         1 MOL      -0.2040
     24 P         -28.8145   44.2545   37.4228 P.3         1 MOL       0.1348
     25 O1P       -27.5176   44.7815   37.7847 O.co2       1 MOL      -0.6653
     26 O2P       -29.4071   43.7527   38.6441 O.co2       1 MOL      -0.6653
     27 O3P       -29.6744   45.3245   36.9666 O.co2       1 MOL      -0.6653
     28 N         -28.7548   47.9033   31.5143 N.am        1 MOL      -0.2712
     29 CA        -28.0330   49.0440   32.0474 C.3         1 MOL       0.1461
     30 CH3       -29.0750   50.2101   32.0073 C.3         1 MOL      -0.0287
     31 C         -26.9174   49.4364   31.1638 C.2         1 MOL       0.2294
     32 O         -25.9020   49.9394   31.6350 O.2         1 MOL      -0.3416
     33 CB        -27.6008   48.6925   33.5363 C.3         1 MOL       0.0325
     34 CG        -27.5021   49.8141   34.5250 C.ar        1 MOL      -0.0034
     35 CD1       -28.5162   49.9894   35.5000 C.ar        1 MOL      -0.0242
     36 CD2       -26.4159   50.7219   34.5206 C.ar        1 MOL      -0.0242
     37 CE1       -28.4593   51.0525   36.4198 C.ar        1 MOL       0.0115
     38 CE2       -26.3583   51.7865   35.4409 C.ar        1 MOL       0.0115
     39 CZ        -27.3915   51.9714   36.3804 C.ar        1 MOL       0.1728
     40 OH        -27.3027   52.9670   37.3148 O.3         1 MOL      -0.2040
     41 P         -28.3361   54.1119   37.1483 P.3         1 MOL       0.1348
     42 O1P       -27.7458   55.3969   36.8434 O.co2       1 MOL      -0.6653
     43 O2P       -28.9378   54.2597   38.4584 O.co2       1 MOL      -0.6653
     44 O3P       -29.4218   53.8983   36.2284 O.co2       1 MOL      -0.6653
     45 N         -27.0088   49.2724   29.8476 N.am        1 MOL      -0.2663
     46 CA        -26.0391   49.6120   28.8431 C.3         1 MOL       0.1112
     47 C         -26.6950   50.4616   27.8190 C.2         1 MOL       0.0626
     48 O         -27.4825   51.4907   28.2174 O.co2       1 MOL      -0.5664
     49 CB        -25.4684   48.2885   28.2373 C.3         1 MOL       0.0720
     50 CG        -24.5153   47.6202   29.1074 C.2         1 MOL       0.1774
     51 OD1       -24.7700   46.5454   29.6358 O.2         1 MOL      -0.3971
     52 ND2       -23.3076   48.1125   29.2752 N.am        1 MOL      -0.3007
     53 OXT       -26.1059   50.6136   26.6094 O.co2       1 MOL      -0.5664
     54 H1        -35.3977   47.7094   28.5241 H           1 MOL       0.0566
     55 H2        -33.0052   47.9745   28.5961 H           1 MOL       0.0448
     56 H3        -32.8046   47.2696   24.4370 H           1 MOL       0.0451
     57 H4        -36.5135   47.2372   26.4287 H           1 MOL       0.0459
     58 H5        -30.9931   48.8193   26.9615 H           1 MOL       0.0774
     59 H6        -30.7639   47.7708   25.5758 H           1 MOL       0.0774
     60 H7        -34.8570   46.8822   23.2769 H           1 MOL       0.1718
     61 H8        -36.3386   46.8712   24.0837 H           1 MOL       0.1718
     62 H9        -29.3962   45.0830   28.6641 H           1 MOL       0.1902
     63 H10       -30.1659   45.8347   31.2017 H           1 MOL       0.0839
     64 H11       -27.7643   44.1076   30.4586 H           1 MOL       0.0584
     65 H12       -29.4205   43.5422   30.4055 H           1 MOL       0.0584
     66 H13       -30.8312   44.0112   32.6297 H           1 MOL       0.0703
     67 H14       -26.6177   43.6868   32.5405 H           1 MOL       0.0703
     68 H15       -30.8108   43.5059   34.9805 H           1 MOL       0.0736
     69 H16       -26.6150   43.1846   34.8988 H           1 MOL       0.0736
     70 H17       -29.7203   47.9782   31.5166 H           1 MOL       0.1842
     71 H18       -28.6320   51.1478   32.3533 H           1 MOL       0.0244
     72 H19       -29.9304   49.9832   32.6487 H           1 MOL       0.0244
     73 H20       -29.4506   50.3740   30.9929 H           1 MOL       0.0244
     74 H21       -26.6476   48.1543   33.5322 H           1 MOL       0.0549
     75 H22       -28.3148   47.9681   33.9420 H           1 MOL       0.0549
     76 H23       -29.3151   49.3511   35.5452 H           1 MOL       0.0703
     77 H24       -25.6554   50.6139   33.8504 H           1 MOL       0.0703
     78 H25       -29.2001   51.1621   37.1153 H           1 MOL       0.0736
     79 H26       -25.5596   52.4259   35.4278 H           1 MOL       0.0736
     80 H27       -27.8154   48.8471   29.5137 H           1 MOL       0.1883
     81 H28       -25.2145   50.2119   29.2496 H           1 MOL       0.0754
     82 H29       -24.9490   48.4952   27.2945 H           1 MOL       0.0544
     83 H30       -26.3026   47.6150   28.0006 H           1 MOL       0.0544
     84 H31       -22.6498   47.6133   29.7838 H           1 MOL       0.1814
     85 H32       -23.0543   48.9382   28.8301 H           1 MOL       0.1814
@<TRIPOS>BOND
     1     1     5  ar
     2     2     1  ar
     3     3     2  ar
     4     6     3   1
     5     3     4  ar
     6     4    11  ar
     7    11    10   1
     8    11     5  ar
     9     7     6   1
    10     8     7   1
    11     8     9   2
    12    13    12   1
    13    13    16   1
    14    14    13   1
    15    14    15   2
    16    16    17   1
    17    17    19  ar
    18    17    18  ar
    19    18    20  ar
    20    20    22  ar
    21    22    23   1
    22    21    22  ar
    23    19    21  ar
    24    23    24   1
    25    24    27  ar
    26    24    26  ar
    27    24    25  ar
    28    29    28   1
    29    29    33   1
    30    31    29   1
    31    29    30   1
    32    31    32   2
    33    33    34   1
    34    34    36  ar
    35    34    35  ar
    36    35    37  ar
    37    37    39  ar
    38    39    40   1
    39    38    39  ar
    40    36    38  ar
    41    40    41   1
    42    41    44  ar
    43    41    43  ar
    44    41    42  ar
    45    46    47   1
    46    46    49   1
    47    45    46   1
    48    49    50   1
    49    50    51   2
    50    50    52  am
    51    47    53  ar
    52    47    48  ar
    53    28    14  am
    54    12     8  am
    55    31    45  am
    56     1    54   1
    57     2    55   1
    58     4    56   1
    59     5    57   1
    60     6    58   1
    61     6    59   1
    62    10    60   1
    63    10    61   1
    64    12    62   1
    65    13    63   1
    66    16    64   1
    67    16    65   1
    68    18    66   1
    69    19    67   1
    70    20    68   1
    71    21    69   1
    72    28    70   1
    73    30    71   1
    74    30    72   1
    75    30    73   1
    76    33    74   1
    77    33    75   1
    78    35    76   1
    79    36    77   1
    80    37    78   1
    81    38    79   1
    82    45    80   1
    83    46    81   1
    84    49    82   1
    85    49    83   1
    86    52    84   1
    87    52    85   1
@<TRIPOS>SUBSTRUCTURE
     1  MOL      1

