@<TRIPOS>MOLECULE
1jyq_ligand_074
    85    87
SMALL
GAST_HUCK
****
This file was generated by PARSER (from files_GN.cpp)

@<TRIPOS>ATOM
      1 C1        -25.1507   46.9359   27.3354 C.ar        1 MOL      -0.0801
      2 C2        -24.2967   47.0991   28.4427 C.ar        1 MOL      -0.0711
      3 C3        -24.2835   48.3145   29.1660 C.ar        1 MOL      -0.0250
      4 C4        -25.1435   49.3606   28.7558 C.ar        1 MOL      -0.0414
      5 C6        -25.9967   47.9849   26.9348 C.ar        1 MOL      -0.0516
      6 C12       -23.3883   48.5116   30.3361 C.3         1 MOL       0.1084
      7 O13       -24.1230   48.8976   31.5025 O.3         1 MOL      -0.2508
      8 C16       -24.9696   48.1345   32.2367 C.2         1 MOL       0.3241
      9 O18       -25.1783   46.8333   31.9296 O.2         1 MOL      -0.3773
     10 N11       -26.7978   50.2115   27.2604 N.pl3       1 MOL      -0.3383
     11 C5        -25.9957   49.2024   27.6434 C.ar        1 MOL       0.0282
     12 N         -25.5947   48.7467   33.2686 N.am        1 MOL      -0.2380
     13 CA        -26.5243   48.1246   34.1723 C.3         1 MOL       0.1484
     14 C         -27.8876   48.1054   33.6325 C.2         1 MOL       0.2046
     15 O         -28.1624   48.8016   32.6621 O.2         1 MOL      -0.3944
     16 CB        -26.3733   48.7699   35.6024 C.3         1 MOL       0.0400
     17 CG        -27.4322   49.7050   36.0993 C.ar        1 MOL      -0.0004
     18 CD1       -28.0969   50.6011   35.2299 C.ar        1 MOL      -0.0239
     19 CD2       -27.8191   49.6899   37.4611 C.ar        1 MOL      -0.0239
     20 CE1       -29.2152   51.3286   35.6732 C.ar        1 MOL       0.0115
     21 CE2       -28.9075   50.4570   37.9182 C.ar        1 MOL       0.0115
     22 CZ        -29.6300   51.2658   37.0210 C.ar        1 MOL       0.1728
     23 OH        -30.7983   51.8441   37.4412 O.3         1 MOL      -0.2040
     24 P         -30.7627   53.3891   37.5832 P.3         1 MOL       0.1348
     25 O1P       -30.2062   53.9973   36.3973 O.co2       1 MOL      -0.6653
     26 O2P       -30.0637   53.8564   38.7587 O.co2       1 MOL      -0.6653
     27 O3P       -32.1289   53.8484   37.6656 O.co2       1 MOL      -0.6653
     28 N         -28.8133   47.3327   34.1947 N.am        1 MOL      -0.2712
     29 CA        -30.2166   47.1853   33.8493 C.3         1 MOL       0.1461
     30 CH3       -30.9024   48.6033   33.9323 C.3         1 MOL      -0.0287
     31 C         -30.8078   46.2686   34.8535 C.2         1 MOL       0.2294
     32 O         -31.7455   46.6324   35.5554 O.2         1 MOL      -0.3416
     33 CB        -30.4355   46.6073   32.3911 C.3         1 MOL       0.0325
     34 CG        -29.5518   45.4799   31.9561 C.ar        1 MOL      -0.0034
     35 CD1       -30.0100   44.1403   31.9584 C.ar        1 MOL      -0.0242
     36 CD2       -28.2389   45.7246   31.4865 C.ar        1 MOL      -0.0242
     37 CE1       -29.1485   43.0754   31.6279 C.ar        1 MOL       0.0115
     38 CE2       -27.3830   44.6671   31.1310 C.ar        1 MOL       0.0115
     39 CZ        -27.8111   43.3295   31.2609 C.ar        1 MOL       0.1728
     40 OH        -26.9862   42.2857   30.9327 O.3         1 MOL      -0.2040
     41 P         -25.9259   41.9511   32.0249 P.3         1 MOL       0.1348
     42 O1P       -24.9811   43.0229   32.2152 O.co2       1 MOL      -0.6653
     43 O2P       -25.1604   40.8286   31.5348 O.co2       1 MOL      -0.6653
     44 O3P       -26.4795   41.5682   33.2996 O.co2       1 MOL      -0.6653
     45 N         -30.3226   45.0371   34.9914 N.am        1 MOL      -0.2663
     46 CA        -30.7646   43.9151   35.7788 C.3         1 MOL       0.1112
     47 C         -32.0502   44.0342   36.5182 C.2         1 MOL       0.0626
     48 O         -32.1195   44.5149   37.7794 O.co2       1 MOL      -0.5664
     49 CB        -29.5937   43.3597   36.6522 C.3         1 MOL       0.0720
     50 CG        -28.8607   44.3099   37.4799 C.2         1 MOL       0.1774
     51 OD1       -27.6426   44.2396   37.5768 O.2         1 MOL      -0.3971
     52 ND2       -29.4500   45.2368   38.1988 N.am        1 MOL      -0.3007
     53 OXT       -33.2205   43.7339   35.9012 O.co2       1 MOL      -0.5664
     54 H1        -25.1514   46.0552   26.8167 H           1 MOL       0.0566
     55 H2        -23.6843   46.3260   28.7153 H           1 MOL       0.0448
     56 H3        -25.1483   50.2474   29.2681 H           1 MOL       0.0451
     57 H4        -26.6102   47.8573   26.1258 H           1 MOL       0.0459
     58 H5        -22.6857   49.3150   30.1053 H           1 MOL       0.0774
     59 H6        -22.7991   47.6196   30.5619 H           1 MOL       0.0774
     60 H7        -26.7922   51.0501   27.7496 H           1 MOL       0.1718
     61 H8        -27.3802   50.1071   26.4910 H           1 MOL       0.1718
     62 H9        -25.4031   49.6880   33.4059 H           1 MOL       0.1902
     63 H10       -26.2165   47.0759   34.2731 H           1 MOL       0.0839
     64 H11       -25.4213   49.3068   35.6628 H           1 MOL       0.0584
     65 H12       -26.2836   47.9404   36.3148 H           1 MOL       0.0584
     66 H13       -27.8172   50.6686   34.2492 H           1 MOL       0.0703
     67 H14       -27.3260   49.0954   38.1313 H           1 MOL       0.0703
     68 H15       -29.7461   51.8900   35.0059 H           1 MOL       0.0736
     69 H16       -29.1916   50.3962   38.9003 H           1 MOL       0.0736
     70 H17       -28.5052   46.8033   34.9486 H           1 MOL       0.1842
     71 H18       -31.9694   48.5325   33.6896 H           1 MOL       0.0244
     72 H19       -30.4533   49.3146   33.2351 H           1 MOL       0.0244
     73 H20       -30.8030   49.0146   34.9439 H           1 MOL       0.0244
     74 H21       -30.3141   47.4119   31.6642 H           1 MOL       0.0549
     75 H22       -31.4789   46.2958   32.2887 H           1 MOL       0.0549
     76 H23       -30.9723   43.9241   32.2298 H           1 MOL       0.0703
     77 H24       -27.8916   46.6793   31.3938 H           1 MOL       0.0703
     78 H25       -29.4935   42.1112   31.6620 H           1 MOL       0.0736
     79 H26       -26.4372   44.8685   30.7996 H           1 MOL       0.0736
     80 H27       -29.5560   44.8442   34.4331 H           1 MOL       0.1883
     81 H28       -30.9588   43.1373   35.0349 H           1 MOL       0.0754
     82 H29       -28.8782   42.8920   35.9697 H           1 MOL       0.0544
     83 H30       -29.9647   42.5640   37.3020 H           1 MOL       0.0544
     84 H31       -28.9119   45.8257   38.7542 H           1 MOL       0.1814
     85 H32       -30.4096   45.3643   38.1667 H           1 MOL       0.1814
@<TRIPOS>BOND
     1     1     5  ar
     2     2     1  ar
     3     3     2  ar
     4     6     3   1
     5     3     4  ar
     6     4    11  ar
     7    11    10   1
     8    11     5  ar
     9     7     6   1
    10     8     7   1
    11     8     9   2
    12    13    12   1
    13    13    16   1
    14    14    13   1
    15    14    15   2
    16    16    17   1
    17    17    19  ar
    18    17    18  ar
    19    18    20  ar
    20    20    22  ar
    21    22    23   1
    22    21    22  ar
    23    19    21  ar
    24    23    24   1
    25    24    27  ar
    26    24    26  ar
    27    24    25  ar
    28    29    28   1
    29    29    33   1
    30    31    29   1
    31    29    30   1
    32    31    32   2
    33    33    34   1
    34    34    36  ar
    35    34    35  ar
    36    35    37  ar
    37    37    39  ar
    38    39    40   1
    39    38    39  ar
    40    36    38  ar
    41    40    41   1
    42    41    44  ar
    43    41    43  ar
    44    41    42  ar
    45    46    47   1
    46    46    49   1
    47    45    46   1
    48    49    50   1
    49    50    51   2
    50    50    52  am
    51    47    53  ar
    52    47    48  ar
    53    28    14  am
    54    12     8  am
    55    31    45  am
    56     1    54   1
    57     2    55   1
    58     4    56   1
    59     5    57   1
    60     6    58   1
    61     6    59   1
    62    10    60   1
    63    10    61   1
    64    12    62   1
    65    13    63   1
    66    16    64   1
    67    16    65   1
    68    18    66   1
    69    19    67   1
    70    20    68   1
    71    21    69   1
    72    28    70   1
    73    30    71   1
    74    30    72   1
    75    30    73   1
    76    33    74   1
    77    33    75   1
    78    35    76   1
    79    36    77   1
    80    37    78   1
    81    38    79   1
    82    45    80   1
    83    46    81   1
    84    49    82   1
    85    49    83   1
    86    52    84   1
    87    52    85   1
@<TRIPOS>SUBSTRUCTURE
     1  MOL      1

