@<TRIPOS>MOLECULE
1jyq_ligand_095
    85    87
SMALL
GAST_HUCK
****
This file was generated by PARSER (from files_GN.cpp)

@<TRIPOS>ATOM
      1 C1        -24.7553   39.8792   26.9374 C.ar        1 MOL      -0.0801
      2 C2        -23.7169   39.7912   27.8857 C.ar        1 MOL      -0.0711
      3 C3        -22.5764   40.6233   27.7812 C.ar        1 MOL      -0.0250
      4 C4        -22.5050   41.5587   26.7236 C.ar        1 MOL      -0.0414
      5 C6        -24.6674   40.8055   25.8804 C.ar        1 MOL      -0.0516
      6 C12       -21.5283   40.5579   28.8286 C.3         1 MOL       0.1084
      7 O13       -22.0773   41.1606   30.0007 O.3         1 MOL      -0.2508
      8 C16       -22.5254   40.6016   31.1518 C.2         1 MOL       0.3241
      9 O18       -22.5103   39.2516   31.3368 O.2         1 MOL      -0.3773
     10 N11       -23.4688   42.5446   24.7757 N.pl3       1 MOL      -0.3383
     11 C5        -23.5464   41.6500   25.7740 C.ar        1 MOL       0.0282
     12 N         -23.0957   41.4560   32.0244 N.am        1 MOL      -0.2380
     13 CA        -23.6551   41.2190   33.3092 C.3         1 MOL       0.1484
     14 C         -24.3224   39.9264   33.4741 C.2         1 MOL       0.2046
     15 O         -23.9871   39.2388   34.4468 O.2         1 MOL      -0.3944
     16 CB        -24.5910   42.4043   33.7440 C.3         1 MOL       0.0400
     17 CG        -25.9253   42.4756   33.0799 C.ar        1 MOL      -0.0004
     18 CD1       -26.0395   42.3260   31.6743 C.ar        1 MOL      -0.0239
     19 CD2       -27.1182   42.6978   33.8141 C.ar        1 MOL      -0.0239
     20 CE1       -27.3007   42.2916   31.0450 C.ar        1 MOL       0.0115
     21 CE2       -28.3791   42.6776   33.1847 C.ar        1 MOL       0.0115
     22 CZ        -28.4927   42.4606   31.7923 C.ar        1 MOL       0.1728
     23 OH        -29.7499   42.2950   31.2738 O.3         1 MOL      -0.2040
     24 P         -30.2018   43.2435   30.1138 P.3         1 MOL       0.1348
     25 O1P       -30.5154   44.5779   30.5631 O.co2       1 MOL      -0.6653
     26 O2P       -31.3860   42.6841   29.5021 O.co2       1 MOL      -0.6653
     27 O3P       -29.2013   43.2967   29.0725 O.co2       1 MOL      -0.6653
     28 N         -25.1653   39.4380   32.5636 N.am        1 MOL      -0.2712
     29 CA        -25.9167   38.2026   32.5861 C.3         1 MOL       0.1461
     30 CH3       -27.3058   38.5420   33.2248 C.3         1 MOL      -0.0287
     31 C         -25.1800   37.1318   33.2969 C.2         1 MOL       0.2294
     32 O         -24.1075   36.7667   32.8395 O.2         1 MOL      -0.3416
     33 CB        -26.1173   37.6959   31.0936 C.3         1 MOL       0.0325
     34 CG        -27.1568   38.3790   30.2672 C.ar        1 MOL      -0.0034
     35 CD1       -28.4956   37.9230   30.2739 C.ar        1 MOL      -0.0242
     36 CD2       -26.8237   39.4955   29.4628 C.ar        1 MOL      -0.0242
     37 CE1       -29.4841   38.5681   29.4992 C.ar        1 MOL       0.0115
     38 CE2       -27.8142   40.1432   28.6904 C.ar        1 MOL       0.0115
     39 CZ        -29.1497   39.6674   28.6855 C.ar        1 MOL       0.1728
     40 OH        -30.1785   40.2932   28.0153 O.3         1 MOL      -0.2040
     41 P         -29.8491   41.0515   26.6930 P.3         1 MOL       0.1348
     42 O1P       -29.0597   42.2252   26.9798 O.co2       1 MOL      -0.6653
     43 O2P       -31.0891   41.5114   26.1173 O.co2       1 MOL      -0.6653
     44 O3P       -29.1645   40.2469   25.7063 O.co2       1 MOL      -0.6653
     45 N         -25.6478   36.5395   34.4022 N.am        1 MOL      -0.2663
     46 CA        -25.1325   35.3826   35.0824 C.3         1 MOL       0.1112
     47 C         -23.6895   35.4565   35.4351 C.2         1 MOL       0.0626
     48 O         -22.8868   36.4484   34.9844 O.co2       1 MOL      -0.5664
     49 CB        -25.4776   34.0707   34.3152 C.3         1 MOL       0.0720
     50 CG        -26.8479   34.0240   33.8259 C.2         1 MOL       0.1774
     51 OD1       -27.0830   33.9262   32.6304 O.2         1 MOL      -0.3971
     52 ND2       -27.8701   34.1099   34.6477 N.am        1 MOL      -0.3007
     53 OXT       -23.1546   34.5426   36.2761 O.co2       1 MOL      -0.5664
     54 H1        -25.5732   39.2705   27.0186 H           1 MOL       0.0566
     55 H2        -23.8011   39.1197   28.6504 H           1 MOL       0.0448
     56 H3        -21.7044   42.1913   26.6515 H           1 MOL       0.0451
     57 H4        -25.4326   40.8634   25.1991 H           1 MOL       0.0459
     58 H5        -20.6371   41.1188   28.5416 H           1 MOL       0.0774
     59 H6        -21.2269   39.5176   29.0004 H           1 MOL       0.0774
     60 H7        -22.6920   43.1227   24.7003 H           1 MOL       0.1718
     61 H8        -24.1893   42.6155   24.1250 H           1 MOL       0.1718
     62 H9        -23.0355   42.3951   31.7680 H           1 MOL       0.1902
     63 H10       -22.7944   41.2511   33.9912 H           1 MOL       0.0839
     64 H11       -24.0676   43.3476   33.5449 H           1 MOL       0.0584
     65 H12       -24.7272   42.3309   34.8176 H           1 MOL       0.0584
     66 H13       -25.2139   42.2363   31.0902 H           1 MOL       0.0703
     67 H14       -27.0766   42.8460   34.8229 H           1 MOL       0.0703
     68 H15       -27.3351   42.1243   30.0436 H           1 MOL       0.0736
     69 H16       -29.2231   42.7998   33.7483 H           1 MOL       0.0736
     70 H17       -25.3168   40.0187   31.7985 H           1 MOL       0.1842
     71 H18       -27.9780   37.6828   33.1638 H           1 MOL       0.0244
     72 H19       -27.7743   39.3929   32.7186 H           1 MOL       0.0244
     73 H20       -27.1896   38.8156   34.2792 H           1 MOL       0.0244
     74 H21       -26.3709   36.6285   31.1060 H           1 MOL       0.0549
     75 H22       -25.1617   37.7728   30.5550 H           1 MOL       0.0549
     76 H23       -28.7687   37.1255   30.8515 H           1 MOL       0.0703
     77 H24       -25.8608   39.8497   29.4428 H           1 MOL       0.0703
     78 H25       -30.4443   38.2211   29.5272 H           1 MOL       0.0736
     79 H26       -27.5551   40.9461   28.1137 H           1 MOL       0.0736
     80 H27       -26.4702   36.9006   34.7673 H           1 MOL       0.1883
     81 H28       -25.6644   35.3498   36.0361 H           1 MOL       0.0754
     82 H29       -25.3324   33.2126   34.9743 H           1 MOL       0.0544
     83 H30       -24.7833   33.9542   33.4788 H           1 MOL       0.0544
     84 H31       -28.7752   34.1001   34.2991 H           1 MOL       0.1814
     85 H32       -27.7268   34.2027   35.6027 H           1 MOL       0.1814
@<TRIPOS>BOND
     1     1     5  ar
     2     2     1  ar
     3     3     2  ar
     4     6     3   1
     5     3     4  ar
     6     4    11  ar
     7    11    10   1
     8    11     5  ar
     9     7     6   1
    10     8     7   1
    11     8     9   2
    12    13    12   1
    13    13    16   1
    14    14    13   1
    15    14    15   2
    16    16    17   1
    17    17    19  ar
    18    17    18  ar
    19    18    20  ar
    20    20    22  ar
    21    22    23   1
    22    21    22  ar
    23    19    21  ar
    24    23    24   1
    25    24    27  ar
    26    24    26  ar
    27    24    25  ar
    28    29    28   1
    29    29    33   1
    30    31    29   1
    31    29    30   1
    32    31    32   2
    33    33    34   1
    34    34    36  ar
    35    34    35  ar
    36    35    37  ar
    37    37    39  ar
    38    39    40   1
    39    38    39  ar
    40    36    38  ar
    41    40    41   1
    42    41    44  ar
    43    41    43  ar
    44    41    42  ar
    45    46    47   1
    46    46    49   1
    47    45    46   1
    48    49    50   1
    49    50    51   2
    50    50    52  am
    51    47    53  ar
    52    47    48  ar
    53    28    14  am
    54    12     8  am
    55    31    45  am
    56     1    54   1
    57     2    55   1
    58     4    56   1
    59     5    57   1
    60     6    58   1
    61     6    59   1
    62    10    60   1
    63    10    61   1
    64    12    62   1
    65    13    63   1
    66    16    64   1
    67    16    65   1
    68    18    66   1
    69    19    67   1
    70    20    68   1
    71    21    69   1
    72    28    70   1
    73    30    71   1
    74    30    72   1
    75    30    73   1
    76    33    74   1
    77    33    75   1
    78    35    76   1
    79    36    77   1
    80    37    78   1
    81    38    79   1
    82    45    80   1
    83    46    81   1
    84    49    82   1
    85    49    83   1
    86    52    84   1
    87    52    85   1
@<TRIPOS>SUBSTRUCTURE
     1  MOL      1

