@<TRIPOS>MOLECULE
1jyq_ligand_077
    85    87
SMALL
GAST_HUCK
****
This file was generated by PARSER (from files_GN.cpp)

@<TRIPOS>ATOM
      1 C1        -29.2650   49.2835   25.8065 C.ar        1 MOL      -0.0801
      2 C2        -28.2391   50.0687   26.3622 C.ar        1 MOL      -0.0711
      3 C3        -26.9147   49.5766   26.4345 C.ar        1 MOL      -0.0250
      4 C4        -26.6440   48.2776   25.9436 C.ar        1 MOL      -0.0414
      5 C6        -28.9866   47.9869   25.3380 C.ar        1 MOL      -0.0516
      6 C12       -25.8454   50.3944   27.0666 C.3         1 MOL       0.1084
      7 O13       -25.9263   50.3606   28.4985 O.3         1 MOL      -0.2508
      8 C16       -25.7562   49.2741   29.2987 C.2         1 MOL       0.3241
      9 O18       -25.4724   48.0600   28.7677 O.2         1 MOL      -0.3773
     10 N11       -27.4100   46.2276   24.9918 N.pl3       1 MOL      -0.3383
     11 C5        -27.6742   47.4805   25.4108 C.ar        1 MOL       0.0282
     12 N         -25.9051   49.4357   30.6300 N.am        1 MOL      -0.2380
     13 CA        -25.8338   48.3883   31.6195 C.3         1 MOL       0.1484
     14 C         -27.0498   47.5688   31.6668 C.2         1 MOL       0.2046
     15 O         -27.9614   47.8145   30.8895 O.2         1 MOL      -0.3944
     16 CB        -25.3812   48.9923   32.9868 C.3         1 MOL       0.0400
     17 CG        -26.4170   49.4419   33.9617 C.ar        1 MOL      -0.0004
     18 CD1       -27.5715   50.1389   33.5347 C.ar        1 MOL      -0.0239
     19 CD2       -26.2303   49.2291   35.3491 C.ar        1 MOL      -0.0239
     20 CE1       -28.5232   50.5854   34.4684 C.ar        1 MOL       0.0115
     21 CE2       -27.1722   49.6904   36.2813 C.ar        1 MOL       0.0115
     22 CZ        -28.3177   50.3901   35.8532 C.ar        1 MOL       0.1728
     23 OH        -29.2569   50.7890   36.7616 O.3         1 MOL      -0.2040
     24 P         -29.0761   52.2504   37.2687 P.3         1 MOL       0.1348
     25 O1P       -30.1471   52.5175   38.1963 O.co2       1 MOL      -0.6653
     26 O2P       -29.1941   53.2129   36.2020 O.co2       1 MOL      -0.6653
     27 O3P       -27.8411   52.4554   37.9872 O.co2       1 MOL      -0.6653
     28 N         -27.1444   46.5354   32.5064 N.am        1 MOL      -0.2712
     29 CA        -28.2003   45.5348   32.5820 C.3         1 MOL       0.1461
     30 CH3       -29.6167   46.1817   32.4171 C.3         1 MOL      -0.0287
     31 C         -28.2141   44.9452   33.9362 C.2         1 MOL       0.2294
     32 O         -28.2559   43.7207   34.0545 O.2         1 MOL      -0.3416
     33 CB        -27.9489   44.4756   31.4285 C.3         1 MOL       0.0325
     34 CG        -26.8707   43.4573   31.6134 C.ar        1 MOL      -0.0034
     35 CD1       -26.9622   42.2055   30.9565 C.ar        1 MOL      -0.0242
     36 CD2       -25.7041   43.7188   32.3763 C.ar        1 MOL      -0.0242
     37 CE1       -25.9477   41.2354   31.0806 C.ar        1 MOL       0.0115
     38 CE2       -24.7069   42.7369   32.5317 C.ar        1 MOL       0.0115
     39 CZ        -24.8256   41.4837   31.8981 C.ar        1 MOL       0.1728
     40 OH        -23.8133   40.5670   32.0030 O.3         1 MOL      -0.2040
     41 P         -23.9154   39.6591   33.2597 P.3         1 MOL       0.1348
     42 O1P       -24.0001   40.4131   34.4860 O.co2       1 MOL      -0.6653
     43 O2P       -22.6966   38.8905   33.3477 O.co2       1 MOL      -0.6653
     44 O3P       -25.0128   38.7237   33.1823 O.co2       1 MOL      -0.6653
     45 N         -28.3820   45.7219   35.0061 N.am        1 MOL      -0.2663
     46 CA        -28.7132   45.3527   36.3624 C.3         1 MOL       0.1112
     47 C         -28.2796   43.9892   36.7386 C.2         1 MOL       0.0626
     48 O         -29.0653   42.9167   36.5206 O.co2       1 MOL      -0.5664
     49 CB        -30.2294   45.5900   36.6550 C.3         1 MOL       0.0720
     50 CG        -30.6327   46.9813   36.5703 C.2         1 MOL       0.1774
     51 OD1       -31.3120   47.3881   35.6376 O.2         1 MOL      -0.3971
     52 ND2       -30.2993   47.8408   37.5091 N.am        1 MOL      -0.3007
     53 OXT       -27.1838   43.8006   37.5251 O.co2       1 MOL      -0.5664
     54 H1        -30.2189   49.6503   25.7509 H           1 MOL       0.0566
     55 H2        -28.4628   51.0039   26.7113 H           1 MOL       0.0448
     56 H3        -25.6972   47.8978   26.0000 H           1 MOL       0.0451
     57 H4        -29.7421   47.4165   24.9482 H           1 MOL       0.0459
     58 H5        -25.9452   51.4337   26.7435 H           1 MOL       0.0774
     59 H6        -24.8494   50.0589   26.7651 H           1 MOL       0.0774
     60 H7        -26.5093   45.8737   25.0587 H           1 MOL       0.1718
     61 H8        -28.1233   45.6702   24.6423 H           1 MOL       0.1718
     62 H9        -26.0752   50.3384   30.9422 H           1 MOL       0.1902
     63 H10       -25.0276   47.7118   31.3052 H           1 MOL       0.0839
     64 H11       -24.7376   49.8559   32.7966 H           1 MOL       0.0584
     65 H12       -24.7371   48.2465   33.4652 H           1 MOL       0.0584
     66 H13       -27.7350   50.3141   32.5432 H           1 MOL       0.0703
     67 H14       -25.3950   48.7463   35.6920 H           1 MOL       0.0703
     68 H15       -29.3639   51.0664   34.1413 H           1 MOL       0.0736
     69 H16       -27.0179   49.5231   37.2788 H           1 MOL       0.0736
     70 H17       -26.3959   46.4034   33.1114 H           1 MOL       0.1842
     71 H18       -30.4174   45.4861   32.6914 H           1 MOL       0.0244
     72 H19       -29.8045   46.4739   31.3843 H           1 MOL       0.0244
     73 H20       -29.7056   47.0732   33.0433 H           1 MOL       0.0244
     74 H21       -27.7137   44.9944   30.4988 H           1 MOL       0.0549
     75 H22       -28.8938   43.9565   31.2401 H           1 MOL       0.0549
     76 H23       -27.7629   41.9862   30.3630 H           1 MOL       0.0703
     77 H24       -25.5664   44.6257   32.8258 H           1 MOL       0.0703
     78 H25       -26.0339   40.3459   30.5869 H           1 MOL       0.0736
     79 H26       -23.8836   42.9365   33.1013 H           1 MOL       0.0736
     80 H27       -28.3860   46.6781   34.8360 H           1 MOL       0.1883
     81 H28       -28.1518   46.0447   36.9969 H           1 MOL       0.0754
     82 H29       -30.4658   45.2359   37.6637 H           1 MOL       0.0544
     83 H30       -30.8252   44.9889   35.9582 H           1 MOL       0.0544
     84 H31       -30.5787   48.7668   37.4426 H           1 MOL       0.1814
     85 H32       -29.7690   47.5504   38.2677 H           1 MOL       0.1814
@<TRIPOS>BOND
     1     1     5  ar
     2     2     1  ar
     3     3     2  ar
     4     6     3   1
     5     3     4  ar
     6     4    11  ar
     7    11    10   1
     8    11     5  ar
     9     7     6   1
    10     8     7   1
    11     8     9   2
    12    13    12   1
    13    13    16   1
    14    14    13   1
    15    14    15   2
    16    16    17   1
    17    17    19  ar
    18    17    18  ar
    19    18    20  ar
    20    20    22  ar
    21    22    23   1
    22    21    22  ar
    23    19    21  ar
    24    23    24   1
    25    24    27  ar
    26    24    26  ar
    27    24    25  ar
    28    29    28   1
    29    29    33   1
    30    31    29   1
    31    29    30   1
    32    31    32   2
    33    33    34   1
    34    34    36  ar
    35    34    35  ar
    36    35    37  ar
    37    37    39  ar
    38    39    40   1
    39    38    39  ar
    40    36    38  ar
    41    40    41   1
    42    41    44  ar
    43    41    43  ar
    44    41    42  ar
    45    46    47   1
    46    46    49   1
    47    45    46   1
    48    49    50   1
    49    50    51   2
    50    50    52  am
    51    47    53  ar
    52    47    48  ar
    53    28    14  am
    54    12     8  am
    55    31    45  am
    56     1    54   1
    57     2    55   1
    58     4    56   1
    59     5    57   1
    60     6    58   1
    61     6    59   1
    62    10    60   1
    63    10    61   1
    64    12    62   1
    65    13    63   1
    66    16    64   1
    67    16    65   1
    68    18    66   1
    69    19    67   1
    70    20    68   1
    71    21    69   1
    72    28    70   1
    73    30    71   1
    74    30    72   1
    75    30    73   1
    76    33    74   1
    77    33    75   1
    78    35    76   1
    79    36    77   1
    80    37    78   1
    81    38    79   1
    82    45    80   1
    83    46    81   1
    84    49    82   1
    85    49    83   1
    86    52    84   1
    87    52    85   1
@<TRIPOS>SUBSTRUCTURE
     1  MOL      1

