@<TRIPOS>MOLECULE
1jyq_ligand_043
    85    87
SMALL
GAST_HUCK
****
This file was generated by PARSER (from files_GN.cpp)

@<TRIPOS>ATOM
      1 C1        -29.8607   47.7272   25.3313 C.ar        1 MOL      -0.0801
      2 C2        -30.4079   47.6637   26.6249 C.ar        1 MOL      -0.0711
      3 C3        -30.4119   46.4497   27.3525 C.ar        1 MOL      -0.0250
      4 C4        -29.8806   45.2903   26.7332 C.ar        1 MOL      -0.0414
      5 C6        -29.2955   46.5788   24.7476 C.ar        1 MOL      -0.0516
      6 C12       -30.9489   46.4123   28.7416 C.3         1 MOL       0.1084
      7 O13       -30.5332   45.2797   29.5251 O.3         1 MOL      -0.2508
      8 C16       -29.2765   44.8988   29.8708 C.2         1 MOL       0.3241
      9 O18       -28.2010   45.5810   29.4180 O.2         1 MOL      -0.3773
     10 N11       -28.7461   44.2634   24.8940 N.pl3       1 MOL      -0.3383
     11 C5        -29.3024   45.3572   25.4492 C.ar        1 MOL       0.0282
     12 N         -29.1624   43.7642   30.5934 N.am        1 MOL      -0.2380
     13 CA        -27.9578   43.0244   30.8602 C.3         1 MOL       0.1484
     14 C         -28.3111   41.8291   31.6312 C.2         1 MOL       0.2046
     15 O         -28.9640   41.9874   32.6573 O.2         1 MOL      -0.3944
     16 CB        -26.7922   43.8190   31.5366 C.3         1 MOL       0.0400
     17 CG        -26.9834   44.1235   32.9827 C.ar        1 MOL      -0.0004
     18 CD1       -26.6177   43.1741   33.9677 C.ar        1 MOL      -0.0239
     19 CD2       -27.5619   45.3431   33.4006 C.ar        1 MOL      -0.0239
     20 CE1       -26.8497   43.4290   35.3319 C.ar        1 MOL       0.0115
     21 CE2       -27.7611   45.6135   34.7661 C.ar        1 MOL       0.0115
     22 CZ        -27.4336   44.6465   35.7401 C.ar        1 MOL       0.1728
     23 OH        -27.5962   44.8846   37.0762 O.3         1 MOL      -0.2040
     24 P         -28.8865   44.2377   37.6584 P.3         1 MOL       0.1348
     25 O1P       -30.0665   45.0236   37.3891 O.co2       1 MOL      -0.6653
     26 O2P       -28.7361   44.1832   39.0935 O.co2       1 MOL      -0.6653
     27 O3P       -29.0898   42.8818   37.2052 O.co2       1 MOL      -0.6653
     28 N         -27.9136   40.6285   31.2350 N.am        1 MOL      -0.2712
     29 CA        -28.0526   39.3089   31.8293 C.3         1 MOL       0.1461
     30 CH3       -28.4322   39.2710   33.3488 C.3         1 MOL      -0.0287
     31 C         -26.7489   38.6205   31.7127 C.2         1 MOL       0.2294
     32 O         -26.7413   37.4072   31.5100 O.2         1 MOL      -0.3416
     33 CB        -29.1453   38.5664   30.9713 C.3         1 MOL       0.0325
     34 CG        -30.5131   39.1685   30.9819 C.ar        1 MOL      -0.0034
     35 CD1       -31.4878   38.7299   31.9095 C.ar        1 MOL      -0.0242
     36 CD2       -30.8742   40.1673   30.0464 C.ar        1 MOL      -0.0242
     37 CE1       -32.7823   39.2784   31.9072 C.ar        1 MOL       0.0115
     38 CE2       -32.1727   40.7099   30.0373 C.ar        1 MOL       0.0115
     39 CZ        -33.1435   40.2508   30.9518 C.ar        1 MOL       0.1728
     40 OH        -34.3973   40.8085   30.9662 O.3         1 MOL      -0.2040
     41 P         -35.4270   40.0662   30.0613 P.3         1 MOL       0.1348
     42 O1P       -35.0405   40.0364   28.6722 O.co2       1 MOL      -0.6653
     43 O2P       -36.6750   40.7860   30.1370 O.co2       1 MOL      -0.6653
     44 O3P       -35.6948   38.7236   30.5237 O.co2       1 MOL      -0.6653
     45 N         -25.5885   39.2338   31.9474 N.am        1 MOL      -0.2663
     46 CA        -24.2653   38.6802   31.8239 C.3         1 MOL       0.1112
     47 C         -23.5513   38.6931   33.1183 C.2         1 MOL       0.0626
     48 O         -24.1074   39.1809   34.2499 O.co2       1 MOL      -0.5664
     49 CB        -23.4582   39.4390   30.7351 C.3         1 MOL       0.0720
     50 CG        -23.9294   39.1936   29.3851 C.2         1 MOL       0.1774
     51 OD1       -24.1877   40.1206   28.6291 O.2         1 MOL      -0.3971
     52 ND2       -24.0655   37.9734   28.9186 N.am        1 MOL      -0.3007
     53 OXT       -22.3705   38.0454   33.2268 O.co2       1 MOL      -0.5664
     54 H1        -29.8588   48.6119   24.8201 H           1 MOL       0.0566
     55 H2        -30.7996   48.5147   27.0366 H           1 MOL       0.0448
     56 H3        -29.8893   44.3958   27.2326 H           1 MOL       0.0451
     57 H4        -28.8816   46.6400   23.8150 H           1 MOL       0.0459
     58 H5        -32.0391   46.3916   28.6824 H           1 MOL       0.0774
     59 H6        -30.6614   47.3138   29.2900 H           1 MOL       0.0774
     60 H7        -28.7463   43.4207   25.3755 H           1 MOL       0.1718
     61 H8        -28.3364   44.3226   24.0162 H           1 MOL       0.1718
     62 H9        -30.0011   43.3610   30.8724 H           1 MOL       0.1902
     63 H10       -27.5793   42.7091   29.8822 H           1 MOL       0.0839
     64 H11       -26.6083   44.7482   30.9979 H           1 MOL       0.0584
     65 H12       -25.8775   43.2321   31.4043 H           1 MOL       0.0584
     66 H13       -26.1950   42.2857   33.6969 H           1 MOL       0.0703
     67 H14       -27.8424   46.0440   32.7090 H           1 MOL       0.0703
     68 H15       -26.5992   42.7288   36.0303 H           1 MOL       0.0736
     69 H16       -28.1719   46.5063   35.0514 H           1 MOL       0.0736
     70 H17       -27.4490   40.6276   30.3830 H           1 MOL       0.1842
     71 H18       -28.4739   38.2432   33.7242 H           1 MOL       0.0244
     72 H19       -29.4109   39.7159   33.5324 H           1 MOL       0.0244
     73 H20       -27.6978   39.8188   33.9444 H           1 MOL       0.0244
     74 H21       -29.2264   37.5268   31.3070 H           1 MOL       0.0549
     75 H22       -28.8049   38.5057   29.9313 H           1 MOL       0.0549
     76 H23       -31.2597   38.0126   32.6010 H           1 MOL       0.0703
     77 H24       -30.1942   40.5048   29.3622 H           1 MOL       0.0703
     78 H25       -33.4679   38.9606   32.5946 H           1 MOL       0.0736
     79 H26       -32.4150   41.4339   29.3575 H           1 MOL       0.0736
     80 H27       -25.6278   40.1697   32.1982 H           1 MOL       0.1883
     81 H28       -24.3086   37.6304   31.5241 H           1 MOL       0.0754
     82 H29       -22.4105   39.1203   30.7786 H           1 MOL       0.0544
     83 H30       -23.4752   40.5137   30.9525 H           1 MOL       0.0544
     84 H31       -24.3655   37.8314   28.0071 H           1 MOL       0.1814
     85 H32       -23.8881   37.2077   29.4898 H           1 MOL       0.1814
@<TRIPOS>BOND
     1     1     5  ar
     2     2     1  ar
     3     3     2  ar
     4     6     3   1
     5     3     4  ar
     6     4    11  ar
     7    11    10   1
     8    11     5  ar
     9     7     6   1
    10     8     7   1
    11     8     9   2
    12    13    12   1
    13    13    16   1
    14    14    13   1
    15    14    15   2
    16    16    17   1
    17    17    19  ar
    18    17    18  ar
    19    18    20  ar
    20    20    22  ar
    21    22    23   1
    22    21    22  ar
    23    19    21  ar
    24    23    24   1
    25    24    27  ar
    26    24    26  ar
    27    24    25  ar
    28    29    28   1
    29    29    33   1
    30    31    29   1
    31    29    30   1
    32    31    32   2
    33    33    34   1
    34    34    36  ar
    35    34    35  ar
    36    35    37  ar
    37    37    39  ar
    38    39    40   1
    39    38    39  ar
    40    36    38  ar
    41    40    41   1
    42    41    44  ar
    43    41    43  ar
    44    41    42  ar
    45    46    47   1
    46    46    49   1
    47    45    46   1
    48    49    50   1
    49    50    51   2
    50    50    52  am
    51    47    53  ar
    52    47    48  ar
    53    28    14  am
    54    12     8  am
    55    31    45  am
    56     1    54   1
    57     2    55   1
    58     4    56   1
    59     5    57   1
    60     6    58   1
    61     6    59   1
    62    10    60   1
    63    10    61   1
    64    12    62   1
    65    13    63   1
    66    16    64   1
    67    16    65   1
    68    18    66   1
    69    19    67   1
    70    20    68   1
    71    21    69   1
    72    28    70   1
    73    30    71   1
    74    30    72   1
    75    30    73   1
    76    33    74   1
    77    33    75   1
    78    35    76   1
    79    36    77   1
    80    37    78   1
    81    38    79   1
    82    45    80   1
    83    46    81   1
    84    49    82   1
    85    49    83   1
    86    52    84   1
    87    52    85   1
@<TRIPOS>SUBSTRUCTURE
     1  MOL      1

