@<TRIPOS>MOLECULE
1jyq_ligand_017
    85    87
SMALL
GAST_HUCK
****
This file was generated by PARSER (from files_GN.cpp)

@<TRIPOS>ATOM
      1 C1        -21.7204   41.4023   30.8001 C.ar        1 MOL      -0.0801
      2 C2        -22.5612   41.6335   31.9034 C.ar        1 MOL      -0.0711
      3 C3        -23.5692   40.7051   32.2470 C.ar        1 MOL      -0.0250
      4 C4        -23.7090   39.5317   31.4686 C.ar        1 MOL      -0.0414
      5 C6        -21.8717   40.2352   30.0287 C.ar        1 MOL      -0.0516
      6 C12       -24.4453   40.9541   33.4163 C.3         1 MOL       0.1084
      7 O13       -25.0715   42.2368   33.3844 O.3         1 MOL      -0.2508
      8 C16       -26.0084   42.6980   32.5187 C.2         1 MOL       0.3241
      9 O18       -26.4510   41.9452   31.4798 O.2         1 MOL      -0.3773
     10 N11       -23.0040   38.1683   29.6454 N.pl3       1 MOL      -0.3383
     11 C5        -22.8661   39.2944   30.3632 C.ar        1 MOL       0.0282
     12 N         -26.5408   43.9004   32.8287 N.am        1 MOL      -0.2380
     13 CA        -27.7154   44.4940   32.2528 C.3         1 MOL       0.1484
     14 C         -27.6837   45.9567   32.3075 C.2         1 MOL       0.2046
     15 O         -28.4795   46.5434   31.5851 O.2         1 MOL      -0.3944
     16 CB        -28.9900   43.9688   32.9987 C.3         1 MOL       0.0400
     17 CG        -29.1238   42.4857   32.9479 C.ar        1 MOL      -0.0004
     18 CD1       -29.4505   41.8437   31.7313 C.ar        1 MOL      -0.0239
     19 CD2       -28.8745   41.6923   34.0937 C.ar        1 MOL      -0.0239
     20 CE1       -29.4536   40.4416   31.6461 C.ar        1 MOL       0.0115
     21 CE2       -28.8764   40.2919   34.0062 C.ar        1 MOL       0.0115
     22 CZ        -29.1218   39.6564   32.7694 C.ar        1 MOL       0.1728
     23 OH        -29.0806   38.2951   32.6413 O.3         1 MOL      -0.2040
     24 P         -27.6377   37.7256   32.4873 P.3         1 MOL       0.1348
     25 O1P       -26.9293   38.2023   31.3239 O.co2       1 MOL      -0.6653
     26 O2P       -27.7647   36.2971   32.3265 O.co2       1 MOL      -0.6653
     27 O3P       -26.8489   37.9392   33.6773 O.co2       1 MOL      -0.6653
     28 N         -26.8825   46.6146   33.1527 N.am        1 MOL      -0.2712
     29 CA        -26.7537   48.0315   33.4666 C.3         1 MOL       0.1461
     30 CH3       -28.0630   48.8577   33.2032 C.3         1 MOL      -0.0287
     31 C         -25.6726   48.6084   32.6458 C.2         1 MOL       0.2294
     32 O         -25.3562   49.7821   32.8193 O.2         1 MOL      -0.3416
     33 CB        -26.3606   48.0439   35.0083 C.3         1 MOL       0.0325
     34 CG        -26.9272   49.1315   35.8614 C.ar        1 MOL      -0.0034
     35 CD1       -27.9467   48.8254   36.7992 C.ar        1 MOL      -0.0242
     36 CD2       -26.5095   50.4817   35.7607 C.ar        1 MOL      -0.0242
     37 CE1       -28.5191   49.8171   37.6020 C.ar        1 MOL       0.0115
     38 CE2       -27.0798   51.4820   36.5666 C.ar        1 MOL       0.0115
     39 CZ        -28.1050   51.1577   37.4902 C.ar        1 MOL       0.1728
     40 OH        -28.6337   52.0628   38.3719 O.3         1 MOL      -0.2040
     41 P         -29.1563   53.3869   37.7508 P.3         1 MOL       0.1348
     42 O1P       -30.3456   53.7794   38.4698 O.co2       1 MOL      -0.6653
     43 O2P       -29.4761   53.3428   36.3408 O.co2       1 MOL      -0.6653
     44 O3P       -28.1936   54.4429   37.9612 O.co2       1 MOL      -0.6653
     45 N         -25.1479   47.9407   31.6171 N.am        1 MOL      -0.2663
     46 CA        -24.0644   48.3353   30.7544 C.3         1 MOL       0.1112
     47 C         -23.8605   49.8064   30.7122 C.2         1 MOL       0.0626
     48 O         -22.7014   50.3563   31.1500 O.co2       1 MOL      -0.5664
     49 CB        -24.2551   47.7578   29.3140 C.3         1 MOL       0.0720
     50 CG        -25.5675   47.9715   28.7170 C.2         1 MOL       0.1774
     51 OD1       -25.7452   48.8719   27.9070 O.2         1 MOL      -0.3971
     52 ND2       -26.6053   47.2240   29.0154 N.am        1 MOL      -0.3007
     53 OXT       -24.8592   50.6396   30.3521 O.co2       1 MOL      -0.5664
     54 H1        -20.9855   42.0723   30.5722 H           1 MOL       0.0566
     55 H2        -22.4335   42.4808   32.4606 H           1 MOL       0.0448
     56 H3        -24.4201   38.8353   31.7101 H           1 MOL       0.0451
     57 H4        -21.2463   40.0714   29.2357 H           1 MOL       0.0459
     58 H5        -23.8392   40.9098   34.3202 H           1 MOL       0.0774
     59 H6        -25.2260   40.1964   33.5002 H           1 MOL       0.0774
     60 H7        -23.6696   37.5077   29.8981 H           1 MOL       0.1718
     61 H8        -22.4093   37.9945   28.9005 H           1 MOL       0.1718
     62 H9        -26.1773   44.3255   33.6227 H           1 MOL       0.1902
     63 H10       -27.7672   44.2104   31.1933 H           1 MOL       0.0839
     64 H11       -29.8944   44.4103   32.5635 H           1 MOL       0.0584
     65 H12       -28.9449   44.3168   34.0384 H           1 MOL       0.0584
     66 H13       -29.6479   42.3953   30.8917 H           1 MOL       0.0703
     67 H14       -28.6357   42.1340   34.9852 H           1 MOL       0.0703
     68 H15       -29.6610   39.9933   30.7525 H           1 MOL       0.0736
     69 H16       -28.6661   39.7348   34.8345 H           1 MOL       0.0736
     70 H17       -26.2654   46.0507   33.6492 H           1 MOL       0.1842
     71 H18       -27.9533   49.8909   33.5426 H           1 MOL       0.0244
     72 H19       -28.9062   48.3997   33.7322 H           1 MOL       0.0244
     73 H20       -28.3001   48.9084   32.1372 H           1 MOL       0.0244
     74 H21       -25.2675   48.0462   35.1157 H           1 MOL       0.0549
     75 H22       -26.6732   47.0988   35.4695 H           1 MOL       0.0549
     76 H23       -28.2897   47.8664   36.8883 H           1 MOL       0.0703
     77 H24       -25.7772   50.7415   35.1064 H           1 MOL       0.0703
     78 H25       -29.2456   49.5642   38.2790 H           1 MOL       0.0736
     79 H26       -26.7628   52.4513   36.4761 H           1 MOL       0.0736
     80 H27       -25.4903   47.0461   31.4550 H           1 MOL       0.1883
     81 H28       -23.1554   47.8841   31.1626 H           1 MOL       0.0754
     82 H29       -24.0688   46.6845   29.3301 H           1 MOL       0.0544
     83 H30       -23.4846   48.1894   28.6663 H           1 MOL       0.0544
     84 H31       -27.4711   47.4170   28.6220 H           1 MOL       0.1814
     85 H32       -26.5123   46.4777   29.6258 H           1 MOL       0.1814
@<TRIPOS>BOND
     1     1     5  ar
     2     2     1  ar
     3     3     2  ar
     4     6     3   1
     5     3     4  ar
     6     4    11  ar
     7    11    10   1
     8    11     5  ar
     9     7     6   1
    10     8     7   1
    11     8     9   2
    12    13    12   1
    13    13    16   1
    14    14    13   1
    15    14    15   2
    16    16    17   1
    17    17    19  ar
    18    17    18  ar
    19    18    20  ar
    20    20    22  ar
    21    22    23   1
    22    21    22  ar
    23    19    21  ar
    24    23    24   1
    25    24    27  ar
    26    24    26  ar
    27    24    25  ar
    28    29    28   1
    29    29    33   1
    30    31    29   1
    31    29    30   1
    32    31    32   2
    33    33    34   1
    34    34    36  ar
    35    34    35  ar
    36    35    37  ar
    37    37    39  ar
    38    39    40   1
    39    38    39  ar
    40    36    38  ar
    41    40    41   1
    42    41    44  ar
    43    41    43  ar
    44    41    42  ar
    45    46    47   1
    46    46    49   1
    47    45    46   1
    48    49    50   1
    49    50    51   2
    50    50    52  am
    51    47    53  ar
    52    47    48  ar
    53    28    14  am
    54    12     8  am
    55    31    45  am
    56     1    54   1
    57     2    55   1
    58     4    56   1
    59     5    57   1
    60     6    58   1
    61     6    59   1
    62    10    60   1
    63    10    61   1
    64    12    62   1
    65    13    63   1
    66    16    64   1
    67    16    65   1
    68    18    66   1
    69    19    67   1
    70    20    68   1
    71    21    69   1
    72    28    70   1
    73    30    71   1
    74    30    72   1
    75    30    73   1
    76    33    74   1
    77    33    75   1
    78    35    76   1
    79    36    77   1
    80    37    78   1
    81    38    79   1
    82    45    80   1
    83    46    81   1
    84    49    82   1
    85    49    83   1
    86    52    84   1
    87    52    85   1
@<TRIPOS>SUBSTRUCTURE
     1  MOL      1

