@<TRIPOS>MOLECULE
1jyq_ligand_073
    85    87
SMALL
GAST_HUCK
****
This file was generated by PARSER (from files_GN.cpp)

@<TRIPOS>ATOM
      1 C1        -23.6990   38.5150   32.0879 C.ar        1 MOL      -0.0801
      2 C2        -23.6581   39.5495   33.0389 C.ar        1 MOL      -0.0711
      3 C3        -23.0703   40.7962   32.7297 C.ar        1 MOL      -0.0250
      4 C4        -22.5390   40.9925   31.4311 C.ar        1 MOL      -0.0414
      5 C6        -23.1447   38.7159   30.8078 C.ar        1 MOL      -0.0516
      6 C12       -23.0647   41.9083   33.7178 C.3         1 MOL       0.1084
      7 O13       -24.0735   42.9144   33.5385 O.3         1 MOL      -0.2508
      8 C16       -25.1504   42.9876   32.7146 C.2         1 MOL       0.3241
      9 O18       -25.4571   41.9887   31.8488 O.2         1 MOL      -0.3773
     10 N11       -22.0587   40.1524   29.2458 N.pl3       1 MOL      -0.3383
     11 C5        -22.5701   39.9551   30.4767 C.ar        1 MOL       0.0282
     12 N         -25.9597   44.0619   32.8290 N.am        1 MOL      -0.2380
     13 CA        -27.2005   44.2198   32.1209 C.3         1 MOL       0.1484
     14 C         -27.6126   45.6246   32.0522 C.2         1 MOL       0.2046
     15 O         -28.2632   45.9487   31.0765 O.2         1 MOL      -0.3944
     16 CB        -28.3294   43.2927   32.6994 C.3         1 MOL       0.0400
     17 CG        -29.1038   42.5966   31.6322 C.ar        1 MOL      -0.0004
     18 CD1       -28.7156   41.3174   31.1645 C.ar        1 MOL      -0.0239
     19 CD2       -30.2010   43.2364   31.0125 C.ar        1 MOL      -0.0239
     20 CE1       -29.3613   40.7284   30.0625 C.ar        1 MOL       0.0115
     21 CE2       -30.8490   42.6485   29.9142 C.ar        1 MOL       0.0115
     22 CZ        -30.4044   41.4091   29.4039 C.ar        1 MOL       0.1728
     23 OH        -30.9908   40.8617   28.2994 O.3         1 MOL      -0.2040
     24 P         -30.3435   41.2916   26.9428 P.3         1 MOL       0.1348
     25 O1P       -29.2477   42.2203   26.9792 O.co2       1 MOL      -0.6653
     26 O2P       -31.3731   41.8748   26.1218 O.co2       1 MOL      -0.6653
     27 O3P       -29.9145   40.1154   26.2397 O.co2       1 MOL      -0.6653
     28 N         -27.3628   46.4691   33.0533 N.am        1 MOL      -0.2712
     29 CA        -27.6026   47.9006   33.1708 C.3         1 MOL       0.1461
     30 CH3       -29.0921   48.2791   32.8611 C.3         1 MOL      -0.0287
     31 C         -26.7143   48.6441   32.2373 C.2         1 MOL       0.2294
     32 O         -26.1380   49.6719   32.5813 O.2         1 MOL      -0.3416
     33 CB        -27.2913   48.2594   34.6877 C.3         1 MOL       0.0325
     34 CG        -28.2173   47.7222   35.7411 C.ar        1 MOL      -0.0034
     35 CD1       -28.0694   46.4153   36.2693 C.ar        1 MOL      -0.0242
     36 CD2       -29.2850   48.5162   36.2266 C.ar        1 MOL      -0.0242
     37 CE1       -28.9922   45.9048   37.2025 C.ar        1 MOL       0.0115
     38 CE2       -30.2015   48.0119   37.1668 C.ar        1 MOL       0.0115
     39 CZ        -30.0910   46.6849   37.6260 C.ar        1 MOL       0.1728
     40 OH        -30.9803   46.1956   38.5466 O.3         1 MOL      -0.2040
     41 P         -32.2061   45.4611   37.9172 P.3         1 MOL       0.1348
     42 O1P       -33.0482   45.0257   38.9989 O.co2       1 MOL      -0.6653
     43 O2P       -31.8261   44.2855   37.1808 O.co2       1 MOL      -0.6653
     44 O3P       -33.0074   46.3206   37.0860 O.co2       1 MOL      -0.6653
     45 N         -26.6141   48.2794   30.9589 N.am        1 MOL      -0.2663
     46 CA        -25.9809   48.9562   29.8625 C.3         1 MOL       0.1112
     47 C         -26.7384   48.5570   28.6556 C.2         1 MOL       0.0626
     48 O         -26.9448   47.2532   28.3586 O.co2       1 MOL      -0.5664
     49 CB        -24.4620   48.6028   29.7159 C.3         1 MOL       0.0720
     50 CG        -23.5621   49.3215   30.6046 C.2         1 MOL       0.1774
     51 OD1       -23.7757   50.4745   30.9437 O.2         1 MOL      -0.3971
     52 ND2       -22.3547   48.8664   30.8385 N.am        1 MOL      -0.3007
     53 OXT       -27.2141   49.4955   27.8073 O.co2       1 MOL      -0.5664
     54 H1        -24.1382   37.6236   32.3220 H           1 MOL       0.0566
     55 H2        -24.0729   39.3911   33.9595 H           1 MOL       0.0448
     56 H3        -22.1170   41.8909   31.1849 H           1 MOL       0.0451
     57 H4        -23.1771   37.9591   30.1201 H           1 MOL       0.0459
     58 H5        -22.0914   42.3996   33.6937 H           1 MOL       0.0774
     59 H6        -23.1847   41.5148   34.7293 H           1 MOL       0.0774
     60 H7        -21.6788   41.0115   29.0083 H           1 MOL       0.1718
     61 H8        -22.0804   39.4364   28.5928 H           1 MOL       0.1718
     62 H9        -25.6977   44.7507   33.4657 H           1 MOL       0.1902
     63 H10       -26.9701   43.9194   31.0918 H           1 MOL       0.0839
     64 H11       -29.0157   43.8592   33.3358 H           1 MOL       0.0584
     65 H12       -27.8854   42.5392   33.3575 H           1 MOL       0.0584
     66 H13       -27.9362   40.8182   31.5990 H           1 MOL       0.0703
     67 H14       -30.5192   44.1512   31.3417 H           1 MOL       0.0703
     68 H15       -29.0507   39.8165   29.7185 H           1 MOL       0.0736
     69 H16       -31.6196   43.1416   29.4582 H           1 MOL       0.0736
     70 H17       -26.9192   46.0816   33.8214 H           1 MOL       0.1842
     71 H18       -29.2962   49.3180   33.1350 H           1 MOL       0.0244
     72 H19       -29.7784   47.6413   33.4243 H           1 MOL       0.0244
     73 H20       -29.3257   48.1686   31.8014 H           1 MOL       0.0244
     74 H21       -27.2808   49.3494   34.7942 H           1 MOL       0.0549
     75 H22       -26.2742   47.9374   34.9376 H           1 MOL       0.0549
     76 H23       -27.2863   45.8266   35.9803 H           1 MOL       0.0703
     77 H24       -29.4157   49.4746   35.8944 H           1 MOL       0.0703
     78 H25       -28.8702   44.9583   37.5710 H           1 MOL       0.0736
     79 H26       -30.9639   48.6061   37.5019 H           1 MOL       0.0736
     80 H27       -27.0829   47.4722   30.7195 H           1 MOL       0.1883
     81 H28       -26.1091   50.0394   29.9666 H           1 MOL       0.0754
     82 H29       -24.1197   48.8054   28.6964 H           1 MOL       0.0544
     83 H30       -24.3344   47.5263   29.8757 H           1 MOL       0.0544
     84 H31       -21.7408   49.3974   31.3721 H           1 MOL       0.1814
     85 H32       -22.0637   48.0178   30.4656 H           1 MOL       0.1814
@<TRIPOS>BOND
     1     1     5  ar
     2     2     1  ar
     3     3     2  ar
     4     6     3   1
     5     3     4  ar
     6     4    11  ar
     7    11    10   1
     8    11     5  ar
     9     7     6   1
    10     8     7   1
    11     8     9   2
    12    13    12   1
    13    13    16   1
    14    14    13   1
    15    14    15   2
    16    16    17   1
    17    17    19  ar
    18    17    18  ar
    19    18    20  ar
    20    20    22  ar
    21    22    23   1
    22    21    22  ar
    23    19    21  ar
    24    23    24   1
    25    24    27  ar
    26    24    26  ar
    27    24    25  ar
    28    29    28   1
    29    29    33   1
    30    31    29   1
    31    29    30   1
    32    31    32   2
    33    33    34   1
    34    34    36  ar
    35    34    35  ar
    36    35    37  ar
    37    37    39  ar
    38    39    40   1
    39    38    39  ar
    40    36    38  ar
    41    40    41   1
    42    41    44  ar
    43    41    43  ar
    44    41    42  ar
    45    46    47   1
    46    46    49   1
    47    45    46   1
    48    49    50   1
    49    50    51   2
    50    50    52  am
    51    47    53  ar
    52    47    48  ar
    53    28    14  am
    54    12     8  am
    55    31    45  am
    56     1    54   1
    57     2    55   1
    58     4    56   1
    59     5    57   1
    60     6    58   1
    61     6    59   1
    62    10    60   1
    63    10    61   1
    64    12    62   1
    65    13    63   1
    66    16    64   1
    67    16    65   1
    68    18    66   1
    69    19    67   1
    70    20    68   1
    71    21    69   1
    72    28    70   1
    73    30    71   1
    74    30    72   1
    75    30    73   1
    76    33    74   1
    77    33    75   1
    78    35    76   1
    79    36    77   1
    80    37    78   1
    81    38    79   1
    82    45    80   1
    83    46    81   1
    84    49    82   1
    85    49    83   1
    86    52    84   1
    87    52    85   1
@<TRIPOS>SUBSTRUCTURE
     1  MOL      1

