@<TRIPOS>MOLECULE
1jyq_ligand_029
    85    87
SMALL
GAST_HUCK
****
This file was generated by PARSER (from files_GN.cpp)

@<TRIPOS>ATOM
      1 C1        -31.5737   54.7535   26.2900 C.ar        1 MOL      -0.0801
      2 C2        -32.0880   53.9270   27.3093 C.ar        1 MOL      -0.0711
      3 C3        -31.2451   53.4399   28.3360 C.ar        1 MOL      -0.0250
      4 C4        -29.8811   53.8188   28.3322 C.ar        1 MOL      -0.0414
      5 C6        -30.2119   55.1069   26.2902 C.ar        1 MOL      -0.0516
      6 C12       -31.8282   52.5592   29.3842 C.3         1 MOL       0.1084
      7 O13       -30.9481   52.3488   30.4946 O.3         1 MOL      -0.2508
      8 C16       -30.8473   51.2771   31.3323 C.2         1 MOL       0.3241
      9 O18       -31.7183   50.2432   31.2701 O.2         1 MOL      -0.3773
     10 N11       -28.0671   54.9984   27.3284 N.pl3       1 MOL      -0.3383
     11 C5        -29.3639   54.6461   27.3150 C.ar        1 MOL       0.0282
     12 N         -29.8363   51.3135   32.2191 N.am        1 MOL      -0.2380
     13 CA        -29.5322   50.3571   33.2535 C.3         1 MOL       0.1484
     14 C         -30.3650   50.5904   34.4425 C.2         1 MOL       0.2046
     15 O         -31.2377   51.4474   34.4282 O.2         1 MOL      -0.3944
     16 CB        -27.9935   50.4741   33.5403 C.3         1 MOL       0.0400
     17 CG        -27.1231   49.8411   32.5152 C.ar        1 MOL      -0.0004
     18 CD1       -27.3662   50.0091   31.1283 C.ar        1 MOL      -0.0239
     19 CD2       -25.9689   49.0992   32.8924 C.ar        1 MOL      -0.0239
     20 CE1       -26.4905   49.4737   30.1631 C.ar        1 MOL       0.0115
     21 CE2       -25.1137   48.5397   31.9362 C.ar        1 MOL       0.0115
     22 CZ        -25.3815   48.6897   30.5530 C.ar        1 MOL       0.1728
     23 OH        -24.4758   48.1581   29.6764 O.3         1 MOL      -0.2040
     24 P         -25.0675   47.4977   28.4056 P.3         1 MOL       0.1348
     25 O1P       -25.1603   48.4807   27.3521 O.co2       1 MOL      -0.6653
     26 O2P       -26.3625   46.8836   28.5875 O.co2       1 MOL      -0.6653
     27 O3P       -24.1477   46.4802   27.9574 O.co2       1 MOL      -0.6653
     28 N         -30.1998   49.8394   35.5398 N.am        1 MOL      -0.2712
     29 CA        -30.8267   49.9555   36.8438 C.3         1 MOL       0.1461
     30 CH3       -32.1293   49.0927   36.7535 C.3         1 MOL      -0.0287
     31 C         -31.0837   51.3769   37.1621 C.2         1 MOL       0.2294
     32 O         -32.1994   51.7621   37.4879 O.2         1 MOL      -0.3416
     33 CB        -29.8116   49.3134   37.8919 C.3         1 MOL       0.0325
     34 CG        -29.7353   49.9308   39.2544 C.ar        1 MOL      -0.0034
     35 CD1       -28.7893   50.9488   39.5417 C.ar        1 MOL      -0.0242
     36 CD2       -30.6314   49.5516   40.2793 C.ar        1 MOL      -0.0242
     37 CE1       -28.7547   51.5781   40.7998 C.ar        1 MOL       0.0115
     38 CE2       -30.5915   50.1702   41.5441 C.ar        1 MOL       0.0115
     39 CZ        -29.6369   51.1722   41.8222 C.ar        1 MOL       0.1728
     40 OH        -29.6392   51.7565   43.0584 O.3         1 MOL      -0.2040
     41 P         -28.6289   51.1512   44.0720 P.3         1 MOL       0.1348
     42 O1P       -29.3211   50.9740   45.3259 O.co2       1 MOL      -0.6653
     43 O2P       -27.5461   52.0718   44.3278 O.co2       1 MOL      -0.6653
     44 O3P       -28.0804   49.8790   43.6805 O.co2       1 MOL      -0.6653
     45 N         -30.0931   52.2603   37.0473 N.am        1 MOL      -0.2663
     46 CA        -30.2015   53.6796   37.2195 C.3         1 MOL       0.1112
     47 C         -28.8411   54.2334   37.0436 C.2         1 MOL       0.0626
     48 O         -27.9174   54.1060   38.0204 O.co2       1 MOL      -0.5664
     49 CB        -30.8424   54.1001   38.5934 C.3         1 MOL       0.0720
     50 CG        -32.0872   54.8382   38.4667 C.2         1 MOL       0.1774
     51 OD1       -32.2595   55.8908   39.0673 O.2         1 MOL      -0.3971
     52 ND2       -33.0830   54.3694   37.7459 N.am        1 MOL      -0.3007
     53 OXT       -28.4473   54.8154   35.8866 O.co2       1 MOL      -0.5664
     54 H1        -32.1880   55.0915   25.5467 H           1 MOL       0.0566
     55 H2        -33.0812   53.6789   27.2886 H           1 MOL       0.0448
     56 H3        -29.2516   53.5033   29.0748 H           1 MOL       0.0451
     57 H4        -29.8450   55.7034   25.5426 H           1 MOL       0.0459
     58 H5        -32.1003   51.5984   28.9357 H           1 MOL       0.0774
     59 H6        -32.7392   53.0251   29.7655 H           1 MOL       0.0774
     60 H7        -27.4862   54.6808   28.0379 H           1 MOL       0.1718
     61 H8        -27.7114   55.5656   26.6267 H           1 MOL       0.1718
     62 H9        -29.2714   52.1018   32.1742 H           1 MOL       0.1902
     63 H10       -29.7428   49.3424   32.9042 H           1 MOL       0.0839
     64 H11       -27.7667   50.0251   34.5034 H           1 MOL       0.0584
     65 H12       -27.7124   51.5225   33.6404 H           1 MOL       0.0584
     66 H13       -28.1814   50.5336   30.8009 H           1 MOL       0.0703
     67 H14       -25.7484   48.9752   33.8875 H           1 MOL       0.0703
     68 H15       -26.6744   49.6373   29.1689 H           1 MOL       0.0736
     69 H16       -24.2996   48.0023   32.2448 H           1 MOL       0.0736
     70 H17       -29.5281   49.1439   35.4631 H           1 MOL       0.1842
     71 H18       -32.6815   49.1129   37.6958 H           1 MOL       0.0244
     72 H19       -31.8905   48.0489   36.5076 H           1 MOL       0.0244
     73 H20       -32.7904   49.4811   35.9701 H           1 MOL       0.0244
     74 H21       -28.8026   49.3493   37.4596 H           1 MOL       0.0549
     75 H22       -30.0328   48.2471   38.0179 H           1 MOL       0.0549
     76 H23       -28.1268   51.2533   38.8248 H           1 MOL       0.0703
     77 H24       -31.3097   48.8025   40.1228 H           1 MOL       0.0703
     78 H25       -28.0721   52.3157   40.9780 H           1 MOL       0.0736
     79 H26       -31.2439   49.8742   42.2719 H           1 MOL       0.0736
     80 H27       -29.2309   51.9144   36.7736 H           1 MOL       0.1883
     81 H28       -30.8063   54.0440   36.3811 H           1 MOL       0.0754
     82 H29       -30.1315   54.6968   39.1819 H           1 MOL       0.0544
     83 H30       -31.0523   53.2121   39.1965 H           1 MOL       0.0544
     84 H31       -33.9191   54.8635   37.6904 H           1 MOL       0.1814
     85 H32       -32.9891   53.5256   37.2722 H           1 MOL       0.1814
@<TRIPOS>BOND
     1     1     5  ar
     2     2     1  ar
     3     3     2  ar
     4     6     3   1
     5     3     4  ar
     6     4    11  ar
     7    11    10   1
     8    11     5  ar
     9     7     6   1
    10     8     7   1
    11     8     9   2
    12    13    12   1
    13    13    16   1
    14    14    13   1
    15    14    15   2
    16    16    17   1
    17    17    19  ar
    18    17    18  ar
    19    18    20  ar
    20    20    22  ar
    21    22    23   1
    22    21    22  ar
    23    19    21  ar
    24    23    24   1
    25    24    27  ar
    26    24    26  ar
    27    24    25  ar
    28    29    28   1
    29    29    33   1
    30    31    29   1
    31    29    30   1
    32    31    32   2
    33    33    34   1
    34    34    36  ar
    35    34    35  ar
    36    35    37  ar
    37    37    39  ar
    38    39    40   1
    39    38    39  ar
    40    36    38  ar
    41    40    41   1
    42    41    44  ar
    43    41    43  ar
    44    41    42  ar
    45    46    47   1
    46    46    49   1
    47    45    46   1
    48    49    50   1
    49    50    51   2
    50    50    52  am
    51    47    53  ar
    52    47    48  ar
    53    28    14  am
    54    12     8  am
    55    31    45  am
    56     1    54   1
    57     2    55   1
    58     4    56   1
    59     5    57   1
    60     6    58   1
    61     6    59   1
    62    10    60   1
    63    10    61   1
    64    12    62   1
    65    13    63   1
    66    16    64   1
    67    16    65   1
    68    18    66   1
    69    19    67   1
    70    20    68   1
    71    21    69   1
    72    28    70   1
    73    30    71   1
    74    30    72   1
    75    30    73   1
    76    33    74   1
    77    33    75   1
    78    35    76   1
    79    36    77   1
    80    37    78   1
    81    38    79   1
    82    45    80   1
    83    46    81   1
    84    49    82   1
    85    49    83   1
    86    52    84   1
    87    52    85   1
@<TRIPOS>SUBSTRUCTURE
     1  MOL      1

