@<TRIPOS>MOLECULE
1jyq_ligand_061
    85    87
SMALL
GAST_HUCK
****
This file was generated by PARSER (from files_GN.cpp)

@<TRIPOS>ATOM
      1 C1        -31.5228   44.0161   39.0723 C.ar        1 MOL      -0.0801
      2 C2        -32.0169   44.7603   40.1582 C.ar        1 MOL      -0.0711
      3 C3        -31.1334   45.2976   41.1257 C.ar        1 MOL      -0.0250
      4 C4        -29.7448   45.0832   40.9713 C.ar        1 MOL      -0.0414
      5 C6        -30.1410   43.8016   38.9351 C.ar        1 MOL      -0.0516
      6 C12       -31.6508   46.0644   42.2879 C.3         1 MOL       0.1084
      7 O13       -31.1561   47.4083   42.2557 O.3         1 MOL      -0.2508
      8 C16       -31.8237   48.5467   41.9339 C.2         1 MOL       0.3241
      9 O18       -33.1162   48.5131   41.5275 O.2         1 MOL      -0.3773
     10 N11       -27.9260   44.1267   39.7483 N.pl3       1 MOL      -0.3383
     11 C5        -29.2449   44.3366   39.8829 C.ar        1 MOL       0.0282
     12 N         -31.1253   49.7020   41.9772 N.am        1 MOL      -0.2380
     13 CA        -31.5910   50.9889   41.5302 C.3         1 MOL       0.1484
     14 C         -31.5802   51.1049   40.0665 C.2         1 MOL       0.2046
     15 O         -32.0944   52.1019   39.5695 O.2         1 MOL      -0.3944
     16 CB        -30.7229   52.0692   42.2490 C.3         1 MOL       0.0400
     17 CG        -31.0172   53.4602   41.8018 C.ar        1 MOL      -0.0004
     18 CD1       -32.1292   54.1697   42.3156 C.ar        1 MOL      -0.0239
     19 CD2       -30.2415   54.0608   40.7854 C.ar        1 MOL      -0.0239
     20 CE1       -32.4939   55.4184   41.7804 C.ar        1 MOL       0.0115
     21 CE2       -30.6115   55.3053   40.2429 C.ar        1 MOL       0.0115
     22 CZ        -31.7666   55.9715   40.7034 C.ar        1 MOL       0.1728
     23 OH        -32.1229   57.1604   40.1272 O.3         1 MOL      -0.2040
     24 P         -33.3716   57.0504   39.2035 P.3         1 MOL       0.1348
     25 O1P       -33.6154   58.3532   38.6401 O.co2       1 MOL      -0.6653
     26 O2P       -34.5491   56.7194   39.9764 O.co2       1 MOL      -0.6653
     27 O3P       -33.2345   56.1203   38.1075 O.co2       1 MOL      -0.6653
     28 N         -31.0499   50.1695   39.2770 N.am        1 MOL      -0.2712
     29 CA        -30.9484   50.1417   37.8323 C.3         1 MOL       0.1461
     30 CH3       -30.0246   48.9151   37.5189 C.3         1 MOL      -0.0287
     31 C         -30.2519   51.3244   37.2892 C.2         1 MOL       0.2294
     32 O         -30.5876   51.7989   36.2067 O.2         1 MOL      -0.3416
     33 CB        -32.3655   49.8564   37.1848 C.3         1 MOL       0.0325
     34 CG        -33.4688   50.8132   37.5110 C.ar        1 MOL      -0.0034
     35 CD1       -34.3366   50.5706   38.6060 C.ar        1 MOL      -0.0242
     36 CD2       -33.6456   52.0088   36.7736 C.ar        1 MOL      -0.0242
     37 CE1       -35.3091   51.5161   38.9825 C.ar        1 MOL       0.0115
     38 CE2       -34.6177   52.9540   37.1483 C.ar        1 MOL       0.0115
     39 CZ        -35.4672   52.7121   38.2468 C.ar        1 MOL       0.1728
     40 OH        -36.3607   53.6638   38.6559 O.3         1 MOL      -0.2040
     41 P         -37.7749   53.5250   38.0132 P.3         1 MOL       0.1348
     42 O1P       -38.6191   54.5549   38.5660 O.co2       1 MOL      -0.6653
     43 O2P       -38.3978   52.2596   38.3244 O.co2       1 MOL      -0.6653
     44 O3P       -37.7547   53.7164   36.5872 O.co2       1 MOL      -0.6653
     45 N         -29.1618   51.7928   37.8964 N.am        1 MOL      -0.2663
     46 CA        -28.3277   52.9032   37.5234 C.3         1 MOL       0.1112
     47 C         -29.0711   54.1872   37.4479 C.2         1 MOL       0.0626
     48 O         -28.4071   55.3660   37.4426 O.co2       1 MOL      -0.5664
     49 CB        -27.5085   52.5883   36.2304 C.3         1 MOL       0.0720
     50 CG        -26.2022   53.2176   36.1842 C.2         1 MOL       0.1774
     51 OD1       -25.3712   52.9666   37.0452 O.2         1 MOL      -0.3971
     52 ND2       -25.8491   54.0062   35.1905 N.am        1 MOL      -0.3007
     53 OXT       -30.4220   54.2367   37.4631 O.co2       1 MOL      -0.5664
     54 H1        -32.1705   43.6260   38.3833 H           1 MOL       0.0566
     55 H2        -33.0261   44.9029   40.2402 H           1 MOL       0.0448
     56 H3        -29.0892   45.4604   41.6604 H           1 MOL       0.0451
     57 H4        -29.7916   43.2504   38.1452 H           1 MOL       0.0459
     58 H5        -31.2981   45.5993   43.2086 H           1 MOL       0.0774
     59 H6        -32.7437   46.0550   42.3180 H           1 MOL       0.0774
     60 H7        -27.3046   44.4834   40.4030 H           1 MOL       0.1718
     61 H8        -27.5895   43.5974   39.0062 H           1 MOL       0.1718
     62 H9        -30.2059   49.6443   42.2850 H           1 MOL       0.1902
     63 H10       -32.6258   51.1191   41.8694 H           1 MOL       0.0839
     64 H11       -29.6633   51.8279   42.0916 H           1 MOL       0.0584
     65 H12       -30.8960   52.0206   43.3286 H           1 MOL       0.0584
     66 H13       -32.7084   53.7596   43.0550 H           1 MOL       0.0703
     67 H14       -29.4290   53.5781   40.3930 H           1 MOL       0.0703
     68 H15       -33.3132   55.9100   42.1522 H           1 MOL       0.0736
     69 H16       -30.0622   55.7042   39.4798 H           1 MOL       0.0736
     70 H17       -30.6339   49.4190   39.7326 H           1 MOL       0.1842
     71 H18       -29.8962   48.7829   36.4409 H           1 MOL       0.0244
     72 H19       -30.4540   47.9958   37.9276 H           1 MOL       0.0244
     73 H20       -29.0353   49.0465   37.9702 H           1 MOL       0.0244
     74 H21       -32.6942   48.8575   37.4859 H           1 MOL       0.0549
     75 H22       -32.2681   49.8070   36.0972 H           1 MOL       0.0549
     76 H23       -34.2404   49.7179   39.1642 H           1 MOL       0.0703
     77 H24       -33.0550   52.2087   35.9608 H           1 MOL       0.0703
     78 H25       -35.9011   51.3386   39.7961 H           1 MOL       0.0736
     79 H26       -34.7098   53.8198   36.6138 H           1 MOL       0.0736
     80 H27       -28.8901   51.3285   38.7071 H           1 MOL       0.1883
     81 H28       -27.6266   53.0115   38.3547 H           1 MOL       0.0754
     82 H29       -28.0935   52.8756   35.3511 H           1 MOL       0.0544
     83 H30       -27.3480   51.5065   36.1593 H           1 MOL       0.0544
     84 H31       -24.9429   54.3412   35.1414 H           1 MOL       0.1814
     85 H32       -26.4852   54.2228   34.4917 H           1 MOL       0.1814
@<TRIPOS>BOND
     1     1     5  ar
     2     2     1  ar
     3     3     2  ar
     4     6     3   1
     5     3     4  ar
     6     4    11  ar
     7    11    10   1
     8    11     5  ar
     9     7     6   1
    10     8     7   1
    11     8     9   2
    12    13    12   1
    13    13    16   1
    14    14    13   1
    15    14    15   2
    16    16    17   1
    17    17    19  ar
    18    17    18  ar
    19    18    20  ar
    20    20    22  ar
    21    22    23   1
    22    21    22  ar
    23    19    21  ar
    24    23    24   1
    25    24    27  ar
    26    24    26  ar
    27    24    25  ar
    28    29    28   1
    29    29    33   1
    30    31    29   1
    31    29    30   1
    32    31    32   2
    33    33    34   1
    34    34    36  ar
    35    34    35  ar
    36    35    37  ar
    37    37    39  ar
    38    39    40   1
    39    38    39  ar
    40    36    38  ar
    41    40    41   1
    42    41    44  ar
    43    41    43  ar
    44    41    42  ar
    45    46    47   1
    46    46    49   1
    47    45    46   1
    48    49    50   1
    49    50    51   2
    50    50    52  am
    51    47    53  ar
    52    47    48  ar
    53    28    14  am
    54    12     8  am
    55    31    45  am
    56     1    54   1
    57     2    55   1
    58     4    56   1
    59     5    57   1
    60     6    58   1
    61     6    59   1
    62    10    60   1
    63    10    61   1
    64    12    62   1
    65    13    63   1
    66    16    64   1
    67    16    65   1
    68    18    66   1
    69    19    67   1
    70    20    68   1
    71    21    69   1
    72    28    70   1
    73    30    71   1
    74    30    72   1
    75    30    73   1
    76    33    74   1
    77    33    75   1
    78    35    76   1
    79    36    77   1
    80    37    78   1
    81    38    79   1
    82    45    80   1
    83    46    81   1
    84    49    82   1
    85    49    83   1
    86    52    84   1
    87    52    85   1
@<TRIPOS>SUBSTRUCTURE
     1  MOL      1

