@<TRIPOS>MOLECULE
1kel_ligand_045
    40    40
SMALL
GAST_HUCK
****
This file was generated by PARSER (from files_GN.cpp)

@<TRIPOS>ATOM
      1 C1        -26.0538   42.7524   12.3727 C.ar        1 AAH      -0.0251
      2 C2        -26.0517   41.8465   13.4501 C.ar        1 AAH      -0.0467
      3 C3        -26.5848   40.5477   13.2920 C.ar        1 AAH       0.0074
      4 C4        -27.2079   40.2237   12.0662 C.ar        1 AAH      -0.0467
      5 C5        -27.2152   41.1310   10.9942 C.ar        1 AAH      -0.0251
      6 C6        -26.5895   42.3968   11.1087 C.ar        1 AAH       0.1925
      7 N7        -26.5120   43.2280   10.0292 N.2         1 AAH       0.3095
      8 O8        -25.9498   44.2902   10.0687 O.2         1 AAH       0.1751
      9 O9        -27.0019   42.9032    8.8591 O.2         1 AAH       0.1751
     10 C10       -26.4777   39.5152   14.3646 C.3         1 AAH       0.0060
     11 N11       -25.2963   39.5870   15.3013 N.4         1 AAH       0.2598
     12 C12       -23.9596   39.7609   14.6168 C.3         1 AAH       0.0389
     13 P13       -22.9579   40.8375   15.4097 P.3         1 AAH       0.1070
     14 O14       -21.8269   40.1489   15.9770 O.co2       1 AAH      -0.5587
     15 O15       -22.4405   41.8445   14.5142 O.co2       1 AAH      -0.5587
     16 O16       -23.6220   41.5566   16.4709 O.co2       1 AAH      -0.5587
     17 C17       -25.3751   38.4546   16.3108 C.3         1 AAH      -0.0289
     18 C18       -24.2395   38.3047   17.3740 C.3         1 AAH      -0.0110
     19 C19       -23.1613   37.2166   17.0808 C.3         1 AAH      -0.0366
     20 C20       -23.5598   35.7751   17.5153 C.3         1 AAH       0.0004
     21 C21       -22.5358   34.7739   17.1643 C.2         1 AAH       0.0348
     22 O22       -22.2894   33.7346   17.9938 O.co2       1 AAH      -0.5690
     23 O23       -22.0852   34.6808   15.8933 O.co2       1 AAH      -0.5690
     24 H1        -25.6441   43.6803   12.5149 H           1 AAH       0.0676
     25 H2        -25.6260   42.1252   14.3371 H           1 AAH       0.0576
     26 H3        -27.6484   39.3120   11.9330 H           1 AAH       0.0576
     27 H4        -27.6658   40.8437   10.1231 H           1 AAH       0.0676
     28 H5        -26.4786   38.5245   13.8989 H           1 AAH       0.0994
     29 H6        -27.3938   39.5983   14.9594 H           1 AAH       0.0994
     30 H7        -25.4504   40.4410   15.8410 H           1 AAH       0.2064
     31 H8        -24.0730   40.1475   13.5998 H           1 AAH       0.1014
     32 H9        -23.4508   38.8037   14.4918 H           1 AAH       0.1014
     33 H10       -25.4854   37.5040   15.7809 H           1 AAH       0.0815
     34 H11       -26.3027   38.6002   16.8786 H           1 AAH       0.0815
     35 H12       -24.6825   38.0701   18.3472 H           1 AAH       0.0318
     36 H13       -23.7480   39.2696   17.5090 H           1 AAH       0.0318
     37 H14       -22.2463   37.4846   17.6151 H           1 AAH       0.0285
     38 H15       -22.9272   37.2166   16.0156 H           1 AAH       0.0285
     39 H16       -24.4953   35.4837   17.0350 H           1 AAH       0.0430
     40 H17       -23.7138   35.7636   18.5974 H           1 AAH       0.0430
@<TRIPOS>BOND
     1     1     6  ar
     2     1     2  ar
     3     2     3  ar
     4     3    10   1
     5     3     4  ar
     6     4     5  ar
     7     5     6  ar
     8     6     7   1
     9     7     9   2
    10     7     8   2
    11    10    11   1
    12    11    17   1
    13    11    12   1
    14    12    13   1
    15    13    16  ar
    16    13    15  ar
    17    13    14  ar
    18    17    18   1
    19    18    19   1
    20    19    20   1
    21    20    21   1
    22    21    23  ar
    23    21    22  ar
    24     1    24   1
    25     2    25   1
    26     4    26   1
    27     5    27   1
    28    10    28   1
    29    10    29   1
    30    11    30   1
    31    12    31   1
    32    12    32   1
    33    17    33   1
    34    17    34   1
    35    18    35   1
    36    18    36   1
    37    19    37   1
    38    19    38   1
    39    20    39   1
    40    20    40   1
@<TRIPOS>SUBSTRUCTURE
     1  AAH      1

