@<TRIPOS>MOLECULE
1kel_ligand_018
    40    40
SMALL
GAST_HUCK
****
This file was generated by PARSER (from files_GN.cpp)

@<TRIPOS>ATOM
      1 C1        -26.8022   42.8118   17.4963 C.ar        1 AAH      -0.0251
      2 C2        -26.3676   41.4902   17.2724 C.ar        1 AAH      -0.0467
      3 C3        -26.8474   40.7486   16.1700 C.ar        1 AAH       0.0074
      4 C4        -27.8427   41.3307   15.3553 C.ar        1 AAH      -0.0467
      5 C5        -28.3036   42.6441   15.6048 C.ar        1 AAH      -0.0251
      6 C6        -27.7674   43.4224   16.6559 C.ar        1 AAH       0.1925
      7 N7        -28.1547   44.7183   16.8466 N.2         1 AAH       0.3095
      8 O8        -27.7091   45.4110   17.7233 O.2         1 AAH       0.1751
      9 O9        -29.0457   45.2983   16.0859 O.2         1 AAH       0.1751
     10 C10       -26.2591   39.4128   15.8566 C.3         1 AAH       0.0060
     11 N11       -24.7442   39.4570   15.8379 N.4         1 AAH       0.2598
     12 C12       -24.0731   39.6326   14.4974 C.3         1 AAH       0.0389
     13 P13       -24.8085   40.6147   13.3609 P.3         1 AAH       0.1070
     14 O14       -25.7752   41.5534   13.8919 O.co2       1 AAH      -0.5587
     15 O15       -23.8697   41.4335   12.6222 O.co2       1 AAH      -0.5587
     16 O16       -25.4924   39.7752   12.4043 O.co2       1 AAH      -0.5587
     17 C17       -24.1109   38.3609   16.6658 C.3         1 AAH      -0.0289
     18 C18       -24.0459   36.9345   16.0342 C.3         1 AAH      -0.0110
     19 C19       -22.6008   36.3871   15.7765 C.3         1 AAH      -0.0366
     20 C20       -21.7908   36.0183   17.0541 C.3         1 AAH       0.0004
     21 C21       -21.6148   34.5698   17.2342 C.2         1 AAH       0.0348
     22 O22       -22.4350   33.8544   18.0331 O.co2       1 AAH      -0.5690
     23 O23       -20.5086   33.9752   16.7263 O.co2       1 AAH      -0.5690
     24 H1        -26.3902   43.3312   18.2795 H           1 AAH       0.0676
     25 H2        -25.6532   41.1004   17.8888 H           1 AAH       0.0576
     26 H3        -28.2378   40.8151   14.5676 H           1 AAH       0.0576
     27 H4        -29.0126   43.0310   14.9839 H           1 AAH       0.0676
     28 H5        -26.6446   39.0273   14.9093 H           1 AAH       0.0994
     29 H6        -26.6432   38.7253   16.6247 H           1 AAH       0.0994
     30 H7        -24.4973   40.3060   16.3448 H           1 AAH       0.2064
     31 H8        -23.9148   38.6501   14.0413 H           1 AAH       0.1014
     32 H9        -23.0892   40.0742   14.6745 H           1 AAH       0.1014
     33 H10       -24.6673   38.2852   17.6083 H           1 AAH       0.0815
     34 H11       -23.1021   38.6687   16.9605 H           1 AAH       0.0815
     35 H12       -24.6014   36.9474   15.0923 H           1 AAH       0.0318
     36 H13       -24.5811   36.2400   16.6908 H           1 AAH       0.0318
     37 H14       -22.0128   37.1315   15.2338 H           1 AAH       0.0285
     38 H15       -22.6627   35.5167   15.1178 H           1 AAH       0.0285
     39 H16       -22.2844   36.4483   17.9349 H           1 AAH       0.0430
     40 H17       -20.7900   36.4703   17.0000 H           1 AAH       0.0430
@<TRIPOS>BOND
     1     1     6  ar
     2     1     2  ar
     3     2     3  ar
     4     3    10   1
     5     3     4  ar
     6     4     5  ar
     7     5     6  ar
     8     6     7   1
     9     7     9   2
    10     7     8   2
    11    10    11   1
    12    11    17   1
    13    11    12   1
    14    12    13   1
    15    13    16  ar
    16    13    15  ar
    17    13    14  ar
    18    17    18   1
    19    18    19   1
    20    19    20   1
    21    20    21   1
    22    21    23  ar
    23    21    22  ar
    24     1    24   1
    25     2    25   1
    26     4    26   1
    27     5    27   1
    28    10    28   1
    29    10    29   1
    30    11    30   1
    31    12    31   1
    32    12    32   1
    33    17    33   1
    34    17    34   1
    35    18    35   1
    36    18    36   1
    37    19    37   1
    38    19    38   1
    39    20    39   1
    40    20    40   1
@<TRIPOS>SUBSTRUCTURE
     1  AAH      1

