@<TRIPOS>MOLECULE
1kel_ligand_015
    40    40
SMALL
GAST_HUCK
****
This file was generated by PARSER (from files_GN.cpp)

@<TRIPOS>ATOM
      1 C1        -23.3231   35.7479   16.9302 C.ar        1 AAH      -0.0251
      2 C2        -23.9728   36.8766   16.3966 C.ar        1 AAH      -0.0467
      3 C3        -23.2773   37.8087   15.5924 C.ar        1 AAH       0.0074
      4 C4        -21.9199   37.5403   15.2986 C.ar        1 AAH      -0.0467
      5 C5        -21.2728   36.4053   15.8219 C.ar        1 AAH      -0.0251
      6 C6        -21.9563   35.4914   16.6607 C.ar        1 AAH       0.1925
      7 N7        -21.3218   34.3991   17.1788 N.2         1 AAH       0.3095
      8 O8        -21.8723   33.6079   17.8967 O.2         1 AAH       0.1751
      9 O9        -20.0701   34.1294   16.9114 O.2         1 AAH       0.1751
     10 C10       -23.9448   39.0099   14.9944 C.3         1 AAH       0.0060
     11 N11       -25.0065   39.7343   15.7876 N.4         1 AAH       0.2598
     12 C12       -24.6510   40.0938   17.2099 C.3         1 AAH       0.0389
     13 P13       -23.2986   41.0332   17.4690 P.3         1 AAH       0.1070
     14 O14       -23.3922   42.2787   16.7520 O.co2       1 AAH      -0.5587
     15 O15       -23.2052   41.3449   18.8727 O.co2       1 AAH      -0.5587
     16 O16       -22.0732   40.3623   17.1199 O.co2       1 AAH      -0.5587
     17 C17       -26.3801   39.1098   15.6753 C.3         1 AAH      -0.0289
     18 C18       -27.4706   40.0957   15.1826 C.3         1 AAH      -0.0110
     19 C19       -27.4201   40.3963   13.6551 C.3         1 AAH      -0.0366
     20 C20       -28.8330   40.5894   13.0375 C.3         1 AAH       0.0004
     21 C21       -28.8117   40.6326   11.5649 C.2         1 AAH       0.0348
     22 O22       -29.6204   41.4828   10.8910 O.co2       1 AAH      -0.5690
     23 O23       -28.1245   39.7035   10.8658 O.co2       1 AAH      -0.5690
     24 H1        -23.8643   35.1095   17.5211 H           1 AAH       0.0676
     25 H2        -24.9572   37.0090   16.6247 H           1 AAH       0.0576
     26 H3        -21.3840   38.1721   14.6935 H           1 AAH       0.0576
     27 H4        -20.2888   36.2519   15.5780 H           1 AAH       0.0676
     28 H5        -24.3512   38.6992   14.0266 H           1 AAH       0.0994
     29 H6        -23.1880   39.7588   14.7485 H           1 AAH       0.0994
     30 H7        -25.0936   40.6338   15.3153 H           1 AAH       0.2064
     31 H8        -24.5504   39.1927   17.8154 H           1 AAH       0.1014
     32 H9        -25.4797   40.6683   17.6300 H           1 AAH       0.1014
     33 H10       -26.7136   38.7132   16.6418 H           1 AAH       0.0815
     34 H11       -26.3895   38.2519   14.9945 H           1 AAH       0.0815
     35 H12       -27.3978   41.0314   15.7434 H           1 AAH       0.0318
     36 H13       -28.4382   39.6463   15.4274 H           1 AAH       0.0318
     37 H14       -26.9297   39.5722   13.1289 H           1 AAH       0.0285
     38 H15       -26.8227   41.2978   13.4906 H           1 AAH       0.0285
     39 H16       -29.2735   41.5097   13.4276 H           1 AAH       0.0430
     40 H17       -29.4720   39.7543   13.3361 H           1 AAH       0.0430
@<TRIPOS>BOND
     1     1     6  ar
     2     1     2  ar
     3     2     3  ar
     4     3    10   1
     5     3     4  ar
     6     4     5  ar
     7     5     6  ar
     8     6     7   1
     9     7     9   2
    10     7     8   2
    11    10    11   1
    12    11    17   1
    13    11    12   1
    14    12    13   1
    15    13    16  ar
    16    13    15  ar
    17    13    14  ar
    18    17    18   1
    19    18    19   1
    20    19    20   1
    21    20    21   1
    22    21    23  ar
    23    21    22  ar
    24     1    24   1
    25     2    25   1
    26     4    26   1
    27     5    27   1
    28    10    28   1
    29    10    29   1
    30    11    30   1
    31    12    31   1
    32    12    32   1
    33    17    33   1
    34    17    34   1
    35    18    35   1
    36    18    36   1
    37    19    37   1
    38    19    38   1
    39    20    39   1
    40    20    40   1
@<TRIPOS>SUBSTRUCTURE
     1  AAH      1

