@<TRIPOS>MOLECULE
1kel_ligand_052
    40    40
SMALL
GAST_HUCK
****
This file was generated by PARSER (from files_GN.cpp)

@<TRIPOS>ATOM
      1 C1        -25.9796   42.7094   13.4045 C.ar        1 AAH      -0.0251
      2 C2        -25.7910   42.2134   14.7083 C.ar        1 AAH      -0.0467
      3 C3        -24.5455   41.6675   15.0975 C.ar        1 AAH       0.0074
      4 C4        -23.4710   41.7233   14.1760 C.ar        1 AAH      -0.0467
      5 C5        -23.6581   42.2596   12.8861 C.ar        1 AAH      -0.0251
      6 C6        -24.9225   42.7306   12.4616 C.ar        1 AAH       0.1925
      7 N7        -25.1088   43.1888   11.1876 N.2         1 AAH       0.3095
      8 O8        -26.1824   43.5701   10.7877 O.2         1 AAH       0.1751
      9 O9        -24.1375   43.2435   10.3149 O.2         1 AAH       0.1751
     10 C10       -24.3834   40.9604   16.3980 C.3         1 AAH       0.0060
     11 N11       -24.4198   39.4530   16.3027 N.4         1 AAH       0.2598
     12 C12       -25.7569   38.8649   15.8837 C.3         1 AAH       0.0389
     13 P13       -26.0513   38.8258   14.2417 P.3         1 AAH       0.1070
     14 O14       -26.5149   37.5326   13.8151 O.co2       1 AAH      -0.5587
     15 O15       -27.1058   39.7280   13.8651 O.co2       1 AAH      -0.5587
     16 O16       -24.8805   39.1079   13.4411 O.co2       1 AAH      -0.5587
     17 C17       -23.8663   38.7673   17.5377 C.3         1 AAH      -0.0289
     18 C18       -22.6885   37.7952   17.2194 C.3         1 AAH      -0.0110
     19 C19       -22.7874   36.8742   15.9606 C.3         1 AAH      -0.0366
     20 C20       -22.7340   35.3432   16.1845 C.3         1 AAH       0.0004
     21 C21       -21.6293   34.8794   17.0500 C.2         1 AAH       0.0348
     22 O22       -21.8257   33.7989   17.8453 O.co2       1 AAH      -0.5690
     23 O23       -20.3719   35.2644   16.7887 O.co2       1 AAH      -0.5690
     24 H1        -26.9137   43.0416   13.1451 H           1 AAH       0.0676
     25 H2        -26.5931   42.1579   15.3386 H           1 AAH       0.0576
     26 H3        -22.5512   41.3772   14.4434 H           1 AAH       0.0576
     27 H4        -22.8535   42.2852   12.2557 H           1 AAH       0.0676
     28 H5        -25.1439   41.2937   17.1126 H           1 AAH       0.0994
     29 H6        -23.4124   41.2727   16.8041 H           1 AAH       0.0994
     30 H7        -23.7530   39.2250   15.5612 H           1 AAH       0.2064
     31 H8        -26.5729   39.3814   16.3971 H           1 AAH       0.1014
     32 H9        -25.8269   37.8230   16.2011 H           1 AAH       0.1014
     33 H10       -24.6307   38.2095   18.0758 H           1 AAH       0.0815
     34 H11       -23.4844   39.4835   18.2686 H           1 AAH       0.0815
     35 H12       -22.5362   37.1858   18.1129 H           1 AAH       0.0318
     36 H13       -21.7845   38.4035   17.1205 H           1 AAH       0.0318
     37 H14       -21.9887   37.1451   15.2635 H           1 AAH       0.0285
     38 H15       -23.7049   37.0522   15.4071 H           1 AAH       0.0285
     39 H16       -22.6104   34.8634   15.2160 H           1 AAH       0.0430
     40 H17       -23.6796   35.0161   16.6077 H           1 AAH       0.0430
@<TRIPOS>BOND
     1     1     6  ar
     2     1     2  ar
     3     2     3  ar
     4     3    10   1
     5     3     4  ar
     6     4     5  ar
     7     5     6  ar
     8     6     7   1
     9     7     9   2
    10     7     8   2
    11    10    11   1
    12    11    17   1
    13    11    12   1
    14    12    13   1
    15    13    16  ar
    16    13    15  ar
    17    13    14  ar
    18    17    18   1
    19    18    19   1
    20    19    20   1
    21    20    21   1
    22    21    23  ar
    23    21    22  ar
    24     1    24   1
    25     2    25   1
    26     4    26   1
    27     5    27   1
    28    10    28   1
    29    10    29   1
    30    11    30   1
    31    12    31   1
    32    12    32   1
    33    17    33   1
    34    17    34   1
    35    18    35   1
    36    18    36   1
    37    19    37   1
    38    19    38   1
    39    20    39   1
    40    20    40   1
@<TRIPOS>SUBSTRUCTURE
     1  AAH      1

