@<TRIPOS>MOLECULE
1kel_ligand_013
    40    40
SMALL
GAST_HUCK
****
This file was generated by PARSER (from files_GN.cpp)

@<TRIPOS>ATOM
      1 C1        -26.7859   42.3846   14.0902 C.ar        1 AAH      -0.0251
      2 C2        -25.4684   41.9221   14.1776 C.ar        1 AAH      -0.0467
      3 C3        -25.1743   40.6816   14.7861 C.ar        1 AAH       0.0074
      4 C4        -26.2467   39.9099   15.2868 C.ar        1 AAH      -0.0467
      5 C5        -27.5701   40.3876   15.2146 C.ar        1 AAH      -0.0251
      6 C6        -27.8716   41.6325   14.6100 C.ar        1 AAH       0.1925
      7 N7        -29.1582   42.0773   14.5143 N.2         1 AAH       0.3095
      8 O8        -29.4491   43.1023   13.9514 O.2         1 AAH       0.1751
      9 O9        -30.1682   41.4055   14.9951 O.2         1 AAH       0.1751
     10 C10       -23.7838   40.1536   14.8401 C.3         1 AAH       0.0060
     11 N11       -23.3570   39.8151   16.2460 N.4         1 AAH       0.2598
     12 C12       -23.0616   41.0361   17.0890 C.3         1 AAH       0.0389
     13 P13       -24.0687   41.2147   18.4057 P.3         1 AAH       0.1070
     14 O14       -25.1642   40.2825   18.4209 O.co2       1 AAH      -0.5587
     15 O15       -23.3430   41.0494   19.6433 O.co2       1 AAH      -0.5587
     16 O16       -24.6368   42.5350   18.4454 O.co2       1 AAH      -0.5587
     17 C17       -22.2698   38.7743   16.3385 C.3         1 AAH      -0.0289
     18 C18       -22.5673   37.4446   15.5861 C.3         1 AAH      -0.0110
     19 C19       -22.1110   36.1331   16.2872 C.3         1 AAH      -0.0366
     20 C20       -23.1288   35.6260   17.3513 C.3         1 AAH       0.0004
     21 C21       -22.8341   34.2770   17.8851 C.2         1 AAH       0.0348
     22 O22       -21.6459   33.6645   17.7011 O.co2       1 AAH      -0.5690
     23 O23       -23.7732   33.6208   18.6040 O.co2       1 AAH      -0.5690
     24 H1        -26.9515   43.2838   13.6275 H           1 AAH       0.0676
     25 H2        -24.7113   42.4887   13.7849 H           1 AAH       0.0576
     26 H3        -26.0801   38.9965   15.7183 H           1 AAH       0.0576
     27 H4        -28.3154   39.8011   15.5903 H           1 AAH       0.0676
     28 H5        -23.0672   40.8536   14.3994 H           1 AAH       0.0994
     29 H6        -23.7791   39.2823   14.1829 H           1 AAH       0.0994
     30 H7        -24.1589   39.3526   16.6775 H           1 AAH       0.2064
     31 H8        -23.1424   41.9524   16.4981 H           1 AAH       0.1014
     32 H9        -22.0360   41.0265   17.4640 H           1 AAH       0.1014
     33 H10       -22.1114   38.5384   17.3953 H           1 AAH       0.0815
     34 H11       -21.3293   39.1909   15.9585 H           1 AAH       0.0815
     35 H12       -22.0613   37.4922   14.6187 H           1 AAH       0.0318
     36 H13       -23.6358   37.3510   15.3839 H           1 AAH       0.0318
     37 H14       -21.1337   36.2856   16.7563 H           1 AAH       0.0285
     38 H15       -22.0011   35.3575   15.5201 H           1 AAH       0.0285
     39 H16       -24.1268   35.5845   16.9010 H           1 AAH       0.0430
     40 H17       -23.1631   36.3244   18.1925 H           1 AAH       0.0430
@<TRIPOS>BOND
     1     1     6  ar
     2     1     2  ar
     3     2     3  ar
     4     3    10   1
     5     3     4  ar
     6     4     5  ar
     7     5     6  ar
     8     6     7   1
     9     7     9   2
    10     7     8   2
    11    10    11   1
    12    11    17   1
    13    11    12   1
    14    12    13   1
    15    13    16  ar
    16    13    15  ar
    17    13    14  ar
    18    17    18   1
    19    18    19   1
    20    19    20   1
    21    20    21   1
    22    21    23  ar
    23    21    22  ar
    24     1    24   1
    25     2    25   1
    26     4    26   1
    27     5    27   1
    28    10    28   1
    29    10    29   1
    30    11    30   1
    31    12    31   1
    32    12    32   1
    33    17    33   1
    34    17    34   1
    35    18    35   1
    36    18    36   1
    37    19    37   1
    38    19    38   1
    39    20    39   1
    40    20    40   1
@<TRIPOS>SUBSTRUCTURE
     1  AAH      1

