@<TRIPOS>MOLECULE
1kel_ligand_036
    40    40
SMALL
GAST_HUCK
****
This file was generated by PARSER (from files_GN.cpp)

@<TRIPOS>ATOM
      1 C1        -26.4321   40.6974   21.4261 C.ar        1 AAH      -0.0251
      2 C2        -25.2301   40.5999   20.7036 C.ar        1 AAH      -0.0467
      3 C3        -24.9335   41.4958   19.6519 C.ar        1 AAH       0.0074
      4 C4        -25.8489   42.5454   19.4035 C.ar        1 AAH      -0.0467
      5 C5        -27.0504   42.6483   20.1307 C.ar        1 AAH      -0.0251
      6 C6        -27.3783   41.7150   21.1477 C.ar        1 AAH       0.1925
      7 N7        -28.5591   41.8042   21.8269 N.2         1 AAH       0.3095
      8 O8        -28.9144   40.9745   22.6247 O.2         1 AAH       0.1751
      9 O9        -29.4182   42.7671   21.6172 O.2         1 AAH       0.1751
     10 C10       -23.6818   41.3470   18.8396 C.3         1 AAH       0.0060
     11 N11       -23.8429   40.7154   17.4758 N.4         1 AAH       0.2598
     12 C12       -24.5871   41.5853   16.4894 C.3         1 AAH       0.0389
     13 P13       -24.1179   41.3727   14.9004 P.3         1 AAH       0.1070
     14 O14       -24.9323   42.1961   14.0393 O.co2       1 AAH      -0.5587
     15 O15       -22.7543   41.8163   14.7378 O.co2       1 AAH      -0.5587
     16 O16       -24.2389   40.0099   14.4365 O.co2       1 AAH      -0.5587
     17 C17       -24.3090   39.2726   17.5429 C.3         1 AAH      -0.0289
     18 C18       -23.1973   38.2689   17.1008 C.3         1 AAH      -0.0110
     19 C19       -23.5676   36.8072   17.5049 C.3         1 AAH      -0.0366
     20 C20       -22.4909   35.7698   17.0802 C.3         1 AAH       0.0004
     21 C21       -22.6883   34.4413   17.6856 C.2         1 AAH       0.0348
     22 O22       -23.9298   33.9276   17.8635 O.co2       1 AAH      -0.5690
     23 O23       -21.6595   33.5657   17.6744 O.co2       1 AAH      -0.5690
     24 H1        -26.6203   40.0114   22.1620 H           1 AAH       0.0676
     25 H2        -24.5808   39.8463   20.9428 H           1 AAH       0.0576
     26 H3        -25.6514   43.2373   18.6804 H           1 AAH       0.0576
     27 H4        -27.6830   43.4155   19.9035 H           1 AAH       0.0676
     28 H5        -22.9542   40.7423   19.3941 H           1 AAH       0.0994
     29 H6        -23.2030   42.3247   18.7272 H           1 AAH       0.0994
     30 H7        -22.8824   40.6725   17.1152 H           1 AAH       0.2064
     31 H8        -24.4022   42.6436   16.7072 H           1 AAH       0.1014
     32 H9        -25.6685   41.4161   16.5785 H           1 AAH       0.1014
     33 H10       -25.2070   39.1082   16.9226 H           1 AAH       0.0815
     34 H11       -24.5970   39.0049   18.5689 H           1 AAH       0.0815
     35 H12       -22.2495   38.5549   17.5854 H           1 AAH       0.0318
     36 H13       -23.0799   38.3288   16.0073 H           1 AAH       0.0318
     37 H14       -24.5285   36.5457   17.0374 H           1 AAH       0.0285
     38 H15       -23.6952   36.7552   18.5952 H           1 AAH       0.0285
     39 H16       -21.5073   36.1386   17.3901 H           1 AAH       0.0430
     40 H17       -22.4920   35.6656   15.9886 H           1 AAH       0.0430
@<TRIPOS>BOND
     1     1     6  ar
     2     1     2  ar
     3     2     3  ar
     4     3    10   1
     5     3     4  ar
     6     4     5  ar
     7     5     6  ar
     8     6     7   1
     9     7     9   2
    10     7     8   2
    11    10    11   1
    12    11    17   1
    13    11    12   1
    14    12    13   1
    15    13    16  ar
    16    13    15  ar
    17    13    14  ar
    18    17    18   1
    19    18    19   1
    20    19    20   1
    21    20    21   1
    22    21    23  ar
    23    21    22  ar
    24     1    24   1
    25     2    25   1
    26     4    26   1
    27     5    27   1
    28    10    28   1
    29    10    29   1
    30    11    30   1
    31    12    31   1
    32    12    32   1
    33    17    33   1
    34    17    34   1
    35    18    35   1
    36    18    36   1
    37    19    37   1
    38    19    38   1
    39    20    39   1
    40    20    40   1
@<TRIPOS>SUBSTRUCTURE
     1  AAH      1

