@<TRIPOS>MOLECULE
1kel_ligand_046
    40    40
SMALL
GAST_HUCK
****
This file was generated by PARSER (from files_GN.cpp)

@<TRIPOS>ATOM
      1 C1        -24.6202   43.0972   11.6690 C.ar        1 AAH      -0.0251
      2 C2        -24.7810   42.3411   12.8457 C.ar        1 AAH      -0.0467
      3 C3        -23.6809   42.0526   13.6840 C.ar        1 AAH       0.0074
      4 C4        -22.4185   42.5697   13.3135 C.ar        1 AAH      -0.0467
      5 C5        -22.2648   43.3541   12.1511 C.ar        1 AAH      -0.0251
      6 C6        -23.3652   43.6495   11.3081 C.ar        1 AAH       0.1925
      7 N7        -23.2299   44.4612   10.2186 N.2         1 AAH       0.3095
      8 O8        -24.1506   44.7014    9.4759 O.2         1 AAH       0.1751
      9 O9        -22.1041   45.0550    9.9195 O.2         1 AAH       0.1751
     10 C10       -23.8766   41.3001   14.9606 C.3         1 AAH       0.0060
     11 N11       -24.1810   39.8334   14.7914 N.4         1 AAH       0.2598
     12 C12       -25.4052   39.5081   13.9691 C.3         1 AAH       0.0389
     13 P13       -26.9089   40.0778   14.4351 P.3         1 AAH       0.1070
     14 O14       -27.5870   39.1562   15.3158 O.co2       1 AAH      -0.5587
     15 O15       -26.9163   41.3703   15.0723 O.co2       1 AAH      -0.5587
     16 O16       -27.7542   40.1955   13.2751 O.co2       1 AAH      -0.5587
     17 C17       -24.1249   39.0354   16.0699 C.3         1 AAH      -0.0289
     18 C18       -22.8231   39.1544   16.9175 C.3         1 AAH      -0.0110
     19 C19       -21.4731   39.1351   16.1434 C.3         1 AAH      -0.0366
     20 C20       -21.2256   37.9305   15.1920 C.3         1 AAH       0.0004
     21 C21       -20.6131   36.7600   15.8550 C.2         1 AAH       0.0348
     22 O22       -19.4410   36.2579   15.4048 O.co2       1 AAH      -0.5690
     23 O23       -21.1566   36.2185   16.9676 O.co2       1 AAH      -0.5690
     24 H1        -25.4489   43.2690   11.0940 H           1 AAH       0.0676
     25 H2        -25.7176   42.0230   13.1023 H           1 AAH       0.0576
     26 H3        -21.6042   42.4046   13.9090 H           1 AAH       0.0576
     27 H4        -21.3377   43.7277   11.9412 H           1 AAH       0.0676
     28 H5        -24.6521   41.7858   15.5548 H           1 AAH       0.0994
     29 H6        -22.9637   41.4155   15.5484 H           1 AAH       0.0994
     30 H7        -23.4053   39.4797   14.2266 H           1 AAH       0.2064
     31 H8        -25.4900   38.4190   13.9089 H           1 AAH       0.1014
     32 H9        -25.2290   39.8279   12.9410 H           1 AAH       0.1014
     33 H10       -24.2292   37.9714   15.8370 H           1 AAH       0.0815
     34 H11       -24.9780   39.2971   16.7051 H           1 AAH       0.0815
     35 H12       -22.8185   38.3406   17.6477 H           1 AAH       0.0318
     36 H13       -22.8657   40.0879   17.4864 H           1 AAH       0.0318
     37 H14       -20.6618   39.1803   16.8772 H           1 AAH       0.0285
     38 H15       -21.4107   40.0529   15.5556 H           1 AAH       0.0285
     39 H16       -20.5577   38.2622   14.3907 H           1 AAH       0.0430
     40 H17       -22.1601   37.6204   14.7224 H           1 AAH       0.0430
@<TRIPOS>BOND
     1     1     6  ar
     2     1     2  ar
     3     2     3  ar
     4     3    10   1
     5     3     4  ar
     6     4     5  ar
     7     5     6  ar
     8     6     7   1
     9     7     9   2
    10     7     8   2
    11    10    11   1
    12    11    17   1
    13    11    12   1
    14    12    13   1
    15    13    16  ar
    16    13    15  ar
    17    13    14  ar
    18    17    18   1
    19    18    19   1
    20    19    20   1
    21    20    21   1
    22    21    23  ar
    23    21    22  ar
    24     1    24   1
    25     2    25   1
    26     4    26   1
    27     5    27   1
    28    10    28   1
    29    10    29   1
    30    11    30   1
    31    12    31   1
    32    12    32   1
    33    17    33   1
    34    17    34   1
    35    18    35   1
    36    18    36   1
    37    19    37   1
    38    19    38   1
    39    20    39   1
    40    20    40   1
@<TRIPOS>SUBSTRUCTURE
     1  AAH      1

