@<TRIPOS>MOLECULE
1kel_ligand_047
    40    40
SMALL
GAST_HUCK
****
This file was generated by PARSER (from files_GN.cpp)

@<TRIPOS>ATOM
      1 C1        -22.0021   36.2656   15.9822 C.ar        1 AAH      -0.0251
      2 C2        -22.6679   37.2654   15.2494 C.ar        1 AAH      -0.0467
      3 C3        -24.0535   37.4835   15.4020 C.ar        1 AAH       0.0074
      4 C4        -24.7575   36.6674   16.3144 C.ar        1 AAH      -0.0467
      5 C5        -24.0952   35.6566   17.0358 C.ar        1 AAH      -0.0251
      6 C6        -22.7032   35.4360   16.8900 C.ar        1 AAH       0.1925
      7 N7        -22.0696   34.4503   17.5889 N.2         1 AAH       0.3095
      8 O8        -20.8947   34.2283   17.4705 O.2         1 AAH       0.1751
      9 O9        -22.7048   33.6844   18.4293 O.2         1 AAH       0.1751
     10 C10       -24.7652   38.5431   14.6254 C.3         1 AAH       0.0060
     11 N11       -24.8116   39.9044   15.2782 N.4         1 AAH       0.2598
     12 C12       -23.4427   40.5471   15.3603 C.3         1 AAH       0.0389
     13 P13       -23.3585   42.1265   14.8433 P.3         1 AAH       0.1070
     14 O14       -23.5087   43.0524   15.9315 O.co2       1 AAH      -0.5587
     15 O15       -22.0641   42.3951   14.2657 O.co2       1 AAH      -0.5587
     16 O16       -24.3389   42.4184   13.8247 O.co2       1 AAH      -0.5587
     17 C17       -25.5759   39.8858   16.5776 C.3         1 AAH      -0.0289
     18 C18       -26.0655   41.2699   17.1211 C.3         1 AAH      -0.0110
     19 C19       -25.5288   41.6940   18.5361 C.3         1 AAH      -0.0366
     20 C20       -26.6234   42.1547   19.5384 C.3         1 AAH       0.0004
     21 C21       -27.3717   43.3387   19.0799 C.2         1 AAH       0.0348
     22 O22       -26.8376   44.5735   19.1778 O.co2       1 AAH      -0.5690
     23 O23       -28.5850   43.1902   18.4935 O.co2       1 AAH      -0.5690
     24 H1        -20.9991   36.1455   15.8311 H           1 AAH       0.0676
     25 H2        -22.1207   37.8225   14.5906 H           1 AAH       0.0576
     26 H3        -25.7647   36.7909   16.4497 H           1 AAH       0.0576
     27 H4        -24.6497   35.0633   17.6545 H           1 AAH       0.0676
     28 H5        -25.7840   38.2120   14.4042 H           1 AAH       0.0994
     29 H6        -24.3030   38.6408   13.6379 H           1 AAH       0.0994
     30 H7        -25.3732   40.4738   14.6397 H           1 AAH       0.2064
     31 H8        -22.7340   40.0344   14.7088 H           1 AAH       0.1014
     32 H9        -23.0353   40.4894   16.3745 H           1 AAH       0.1014
     33 H10       -24.9816   39.3630   17.3309 H           1 AAH       0.0815
     34 H11       -26.4834   39.2822   16.4394 H           1 AAH       0.0815
     35 H12       -27.1557   41.2411   17.1474 H           1 AAH       0.0318
     36 H13       -25.8305   42.0502   16.4028 H           1 AAH       0.0318
     37 H14       -24.7950   42.4974   18.4162 H           1 AAH       0.0285
     38 H15       -25.0049   40.8625   19.0136 H           1 AAH       0.0285
     39 H16       -26.1516   42.3964   20.4977 H           1 AAH       0.0430
     40 H17       -27.3223   41.3316   19.7142 H           1 AAH       0.0430
@<TRIPOS>BOND
     1     1     6  ar
     2     1     2  ar
     3     2     3  ar
     4     3    10   1
     5     3     4  ar
     6     4     5  ar
     7     5     6  ar
     8     6     7   1
     9     7     9   2
    10     7     8   2
    11    10    11   1
    12    11    17   1
    13    11    12   1
    14    12    13   1
    15    13    16  ar
    16    13    15  ar
    17    13    14  ar
    18    17    18   1
    19    18    19   1
    20    19    20   1
    21    20    21   1
    22    21    23  ar
    23    21    22  ar
    24     1    24   1
    25     2    25   1
    26     4    26   1
    27     5    27   1
    28    10    28   1
    29    10    29   1
    30    11    30   1
    31    12    31   1
    32    12    32   1
    33    17    33   1
    34    17    34   1
    35    18    35   1
    36    18    36   1
    37    19    37   1
    38    19    38   1
    39    20    39   1
    40    20    40   1
@<TRIPOS>SUBSTRUCTURE
     1  AAH      1

