@<TRIPOS>MOLECULE
1kel_ligand_048
    40    40
SMALL
GAST_HUCK
****
This file was generated by PARSER (from files_GN.cpp)

@<TRIPOS>ATOM
      1 C1        -27.2019   43.5100   13.6349 C.ar        1 AAH      -0.0251
      2 C2        -26.2071   42.6078   14.0488 C.ar        1 AAH      -0.0467
      3 C3        -26.5540   41.3995   14.6936 C.ar        1 AAH       0.0074
      4 C4        -27.9173   41.1368   14.9434 C.ar        1 AAH      -0.0467
      5 C5        -28.9088   42.0454   14.5312 C.ar        1 AAH      -0.0251
      6 C6        -28.5760   43.2415   13.8501 C.ar        1 AAH       0.1925
      7 N7        -29.5473   44.0965   13.4183 N.2         1 AAH       0.3095
      8 O8        -29.3001   45.1120   12.8214 O.2         1 AAH       0.1751
      9 O9        -30.8187   43.8596   13.5991 O.2         1 AAH       0.1751
     10 C10       -25.5212   40.3916   15.0562 C.3         1 AAH       0.0060
     11 N11       -25.4469   40.0860   16.5294 N.4         1 AAH       0.2598
     12 C12       -24.7428   41.1315   17.3553 C.3         1 AAH       0.0389
     13 P13       -25.7679   42.2847   18.0033 P.3         1 AAH       0.1070
     14 O14       -25.4782   43.6006   17.4959 O.co2       1 AAH      -0.5587
     15 O15       -27.1662   42.0257   17.7807 O.co2       1 AAH      -0.5587
     16 O16       -25.6181   42.3526   19.4289 O.co2       1 AAH      -0.5587
     17 C17       -25.0263   38.6734   16.8299 C.3         1 AAH      -0.0289
     18 C18       -23.6904   38.1367   16.2254 C.3         1 AAH      -0.0110
     19 C19       -23.6034   36.5714   16.2374 C.3         1 AAH      -0.0366
     20 C20       -22.3804   35.9598   16.9856 C.3         1 AAH       0.0004
     21 C21       -22.7076   34.7485   17.7624 C.2         1 AAH       0.0348
     22 O22       -21.9248   33.6522   17.7120 O.co2       1 AAH      -0.5690
     23 O23       -23.6607   34.7936   18.7214 O.co2       1 AAH      -0.5690
     24 H1        -26.9098   44.3582   13.1502 H           1 AAH       0.0676
     25 H2        -25.2251   42.8239   13.8552 H           1 AAH       0.0576
     26 H3        -28.1948   40.2751   15.4174 H           1 AAH       0.0576
     27 H4        -29.8838   41.8098   14.7246 H           1 AAH       0.0676
     28 H5        -24.5354   40.6950   14.7005 H           1 AAH       0.0994
     29 H6        -25.7833   39.4918   14.4931 H           1 AAH       0.0994
     30 H7        -26.4198   40.1030   16.8366 H           1 AAH       0.2064
     31 H8        -23.9659   41.6344   16.7760 H           1 AAH       0.1014
     32 H9        -24.2219   40.6837   18.2031 H           1 AAH       0.1014
     33 H10       -25.8479   38.0461   16.4882 H           1 AAH       0.0815
     34 H11       -24.9764   38.5146   17.9136 H           1 AAH       0.0815
     35 H12       -22.8643   38.5980   16.7674 H           1 AAH       0.0318
     36 H13       -23.5818   38.4713   15.1982 H           1 AAH       0.0318
     37 H14       -23.5868   36.2179   15.2013 H           1 AAH       0.0285
     38 H15       -24.5250   36.1610   16.6586 H           1 AAH       0.0285
     39 H16       -21.9552   36.6732   17.6883 H           1 AAH       0.0430
     40 H17       -21.6053   35.7167   16.2557 H           1 AAH       0.0430
@<TRIPOS>BOND
     1     1     6  ar
     2     1     2  ar
     3     2     3  ar
     4     3    10   1
     5     3     4  ar
     6     4     5  ar
     7     5     6  ar
     8     6     7   1
     9     7     9   2
    10     7     8   2
    11    10    11   1
    12    11    17   1
    13    11    12   1
    14    12    13   1
    15    13    16  ar
    16    13    15  ar
    17    13    14  ar
    18    17    18   1
    19    18    19   1
    20    19    20   1
    21    20    21   1
    22    21    23  ar
    23    21    22  ar
    24     1    24   1
    25     2    25   1
    26     4    26   1
    27     5    27   1
    28    10    28   1
    29    10    29   1
    30    11    30   1
    31    12    31   1
    32    12    32   1
    33    17    33   1
    34    17    34   1
    35    18    35   1
    36    18    36   1
    37    19    37   1
    38    19    38   1
    39    20    39   1
    40    20    40   1
@<TRIPOS>SUBSTRUCTURE
     1  AAH      1

