@<TRIPOS>MOLECULE
1kel_ligand_026
    40    40
SMALL
GAST_HUCK
****
This file was generated by PARSER (from files_GN.cpp)

@<TRIPOS>ATOM
      1 C1        -22.8738   36.3770   17.5719 C.ar        1 AAH      -0.0251
      2 C2        -23.1100   37.7363   17.3005 C.ar        1 AAH      -0.0467
      3 C3        -22.4592   38.3881   16.2277 C.ar        1 AAH       0.0074
      4 C4        -21.4973   37.6525   15.4966 C.ar        1 AAH      -0.0467
      5 C5        -21.2227   36.3090   15.8099 C.ar        1 AAH      -0.0251
      6 C6        -21.9137   35.6354   16.8446 C.ar        1 AAH       0.1925
      7 N7        -21.6526   34.3316   17.1450 N.2         1 AAH       0.3095
      8 O8        -22.2378   33.7358   18.0134 O.2         1 AAH       0.1751
      9 O9        -20.7298   33.6425   16.5359 O.2         1 AAH       0.1751
     10 C10       -22.7210   39.8386   15.9323 C.3         1 AAH       0.0060
     11 N11       -24.0922   40.2338   15.4218 N.4         1 AAH       0.2598
     12 C12       -25.1589   40.0799   16.4829 C.3         1 AAH       0.0389
     13 P13       -26.7303   40.5808   16.2154 P.3         1 AAH       0.1070
     14 O14       -27.2740   41.1051   17.4561 O.co2       1 AAH      -0.5587
     15 O15       -26.9250   41.6324   15.2437 O.co2       1 AAH      -0.5587
     16 O16       -27.5805   39.4583   15.8898 O.co2       1 AAH      -0.5587
     17 C17       -24.3886   39.6293   14.0709 C.3         1 AAH      -0.0289
     18 C18       -25.2565   40.4661   13.0915 C.3         1 AAH      -0.0110
     19 C19       -24.9783   41.9972   12.9714 C.3         1 AAH      -0.0366
     20 C20       -23.6022   42.4282   12.3754 C.3         1 AAH       0.0004
     21 C21       -22.4648   42.5267   13.3105 C.2         1 AAH       0.0348
     22 O22       -22.6129   42.3691   14.6514 O.co2       1 AAH      -0.5690
     23 O23       -21.3205   43.1001   12.8758 O.co2       1 AAH      -0.5690
     24 H1        -23.4125   35.9463   18.3236 H           1 AAH       0.0676
     25 H2        -23.7566   38.2570   17.8946 H           1 AAH       0.0576
     26 H3        -20.9750   38.0982   14.7360 H           1 AAH       0.0576
     27 H4        -20.5106   35.8200   15.2718 H           1 AAH       0.0676
     28 H5        -21.9877   40.2028   15.2059 H           1 AAH       0.0994
     29 H6        -22.5060   40.4117   16.8442 H           1 AAH       0.0994
     30 H7        -24.0197   41.2419   15.2578 H           1 AAH       0.2064
     31 H8        -24.8288   40.6520   17.3524 H           1 AAH       0.1014
     32 H9        -25.2249   39.0321   16.7789 H           1 AAH       0.1014
     33 H10       -24.8540   38.6478   14.1952 H           1 AAH       0.0815
     34 H11       -23.4517   39.4513   13.5284 H           1 AAH       0.0815
     35 H12       -26.3045   40.3388   13.3601 H           1 AAH       0.0318
     36 H13       -25.1505   40.0331   12.0915 H           1 AAH       0.0318
     37 H14       -25.1434   42.4776   13.9370 H           1 AAH       0.0285
     38 H15       -25.7509   42.3938   12.2969 H           1 AAH       0.0285
     39 H16       -23.7172   43.4209   11.9320 H           1 AAH       0.0430
     40 H17       -23.3252   41.7419   11.5685 H           1 AAH       0.0430
@<TRIPOS>BOND
     1     1     6  ar
     2     1     2  ar
     3     2     3  ar
     4     3    10   1
     5     3     4  ar
     6     4     5  ar
     7     5     6  ar
     8     6     7   1
     9     7     9   2
    10     7     8   2
    11    10    11   1
    12    11    17   1
    13    11    12   1
    14    12    13   1
    15    13    16  ar
    16    13    15  ar
    17    13    14  ar
    18    17    18   1
    19    18    19   1
    20    19    20   1
    21    20    21   1
    22    21    23  ar
    23    21    22  ar
    24     1    24   1
    25     2    25   1
    26     4    26   1
    27     5    27   1
    28    10    28   1
    29    10    29   1
    30    11    30   1
    31    12    31   1
    32    12    32   1
    33    17    33   1
    34    17    34   1
    35    18    35   1
    36    18    36   1
    37    19    37   1
    38    19    38   1
    39    20    39   1
    40    20    40   1
@<TRIPOS>SUBSTRUCTURE
     1  AAH      1

