@<TRIPOS>MOLECULE
1kel_ligand_027
    40    40
SMALL
GAST_HUCK
****
This file was generated by PARSER (from files_GN.cpp)

@<TRIPOS>ATOM
      1 C1        -23.0103   37.7379   17.5566 C.ar        1 AAH      -0.0251
      2 C2        -23.7926   38.8108   18.0166 C.ar        1 AAH      -0.0467
      3 C3        -23.5694   40.1289   17.5486 C.ar        1 AAH       0.0074
      4 C4        -22.5596   40.3262   16.5820 C.ar        1 AAH      -0.0467
      5 C5        -21.7932   39.2475   16.0981 C.ar        1 AAH      -0.0251
      6 C6        -21.9876   37.9317   16.5890 C.ar        1 AAH       0.1925
      7 N7        -21.2264   36.8916   16.1405 N.2         1 AAH       0.3095
      8 O8        -21.3390   35.7715   16.5656 O.2         1 AAH       0.1751
      9 O9        -20.3254   37.0366   15.1980 O.2         1 AAH       0.1751
     10 C10       -24.3383   41.2828   18.0889 C.3         1 AAH       0.0060
     11 N11       -24.6869   42.3486   17.0887 N.4         1 AAH       0.2598
     12 C12       -25.1725   43.6345   17.7041 C.3         1 AAH       0.0389
     13 P13       -26.6068   43.6303   18.5624 P.3         1 AAH       0.1070
     14 O14       -27.2728   44.9003   18.3867 O.co2       1 AAH      -0.5587
     15 O15       -27.5320   42.6115   18.1289 O.co2       1 AAH      -0.5587
     16 O16       -26.4030   43.4609   19.9849 O.co2       1 AAH      -0.5587
     17 C17       -25.4938   41.8804   15.8985 C.3         1 AAH      -0.0289
     18 C18       -24.6793   41.8926   14.5622 C.3         1 AAH      -0.0110
     19 C19       -24.6150   40.5588   13.7516 C.3         1 AAH      -0.0366
     20 C20       -25.8878   39.6541   13.8167 C.3         1 AAH       0.0004
     21 C21       -25.8492   38.6423   14.9029 C.2         1 AAH       0.0348
     22 O22       -24.6550   38.2151   15.4009 O.co2       1 AAH      -0.5690
     23 O23       -27.0045   38.1555   15.4327 O.co2       1 AAH      -0.5690
     24 H1        -23.1814   36.8051   17.9493 H           1 AAH       0.0676
     25 H2        -24.5038   38.6286   18.7291 H           1 AAH       0.0576
     26 H3        -22.3840   41.2589   16.2154 H           1 AAH       0.0576
     27 H4        -21.0704   39.4412   15.4003 H           1 AAH       0.0676
     28 H5        -23.7069   41.7167   18.8709 H           1 AAH       0.0994
     29 H6        -25.2489   40.9253   18.5742 H           1 AAH       0.0994
     30 H7        -23.7761   42.6114   16.7076 H           1 AAH       0.2064
     31 H8        -25.2786   44.3672   16.8990 H           1 AAH       0.1014
     32 H9        -24.3886   44.0188   18.3646 H           1 AAH       0.1014
     33 H10       -26.3730   42.5159   15.7435 H           1 AAH       0.0815
     34 H11       -25.9011   40.8840   16.0850 H           1 AAH       0.0815
     35 H12       -23.6314   42.1719   14.7862 H           1 AAH       0.0318
     36 H13       -25.0821   42.6803   13.9131 H           1 AAH       0.0318
     37 H14       -23.7287   40.0021   14.0687 H           1 AAH       0.0285
     38 H15       -24.4536   40.8458   12.6981 H           1 AAH       0.0285
     39 H16       -25.9604   39.1041   12.8677 H           1 AAH       0.0430
     40 H17       -26.7884   40.2792   13.8976 H           1 AAH       0.0430
@<TRIPOS>BOND
     1     1     6  ar
     2     1     2  ar
     3     2     3  ar
     4     3    10   1
     5     3     4  ar
     6     4     5  ar
     7     5     6  ar
     8     6     7   1
     9     7     9   2
    10     7     8   2
    11    10    11   1
    12    11    17   1
    13    11    12   1
    14    12    13   1
    15    13    16  ar
    16    13    15  ar
    17    13    14  ar
    18    17    18   1
    19    18    19   1
    20    19    20   1
    21    20    21   1
    22    21    23  ar
    23    21    22  ar
    24     1    24   1
    25     2    25   1
    26     4    26   1
    27     5    27   1
    28    10    28   1
    29    10    29   1
    30    11    30   1
    31    12    31   1
    32    12    32   1
    33    17    33   1
    34    17    34   1
    35    18    35   1
    36    18    36   1
    37    19    37   1
    38    19    38   1
    39    20    39   1
    40    20    40   1
@<TRIPOS>SUBSTRUCTURE
     1  AAH      1

