@<TRIPOS>MOLECULE
1kel_ligand_044
    40    40
SMALL
GAST_HUCK
****
This file was generated by PARSER (from files_GN.cpp)

@<TRIPOS>ATOM
      1 C1        -22.1420   36.7205   17.1505 C.ar        1 AAH      -0.0251
      2 C2        -23.1086   37.7304   17.3061 C.ar        1 AAH      -0.0467
      3 C3        -23.0322   38.9249   16.5584 C.ar        1 AAH       0.0074
      4 C4        -21.9687   39.0684   15.6290 C.ar        1 AAH      -0.0467
      5 C5        -21.0093   38.0519   15.4717 C.ar        1 AAH      -0.0251
      6 C6        -21.0668   36.8617   16.2382 C.ar        1 AAH       0.1925
      7 N7        -20.1129   35.8960   16.1172 N.2         1 AAH       0.3095
      8 O8        -20.1213   34.8873   16.7741 O.2         1 AAH       0.1751
      9 O9        -19.0945   36.0297   15.3097 O.2         1 AAH       0.1751
     10 C10       -24.0174   40.0284   16.7625 C.3         1 AAH       0.0060
     11 N11       -25.4203   39.7500   16.2908 N.4         1 AAH       0.2598
     12 C12       -25.5164   39.2462   14.8694 C.3         1 AAH       0.0389
     13 P13       -25.2679   40.3168   13.6136 P.3         1 AAH       0.1070
     14 O14       -25.5619   39.6331   12.3800 O.co2       1 AAH      -0.5587
     15 O15       -26.1524   41.4533   13.6650 O.co2       1 AAH      -0.5587
     16 O16       -23.9111   40.8002   13.5230 O.co2       1 AAH      -0.5587
     17 C17       -26.5229   40.7296   16.6467 C.3         1 AAH      -0.0289
     18 C18       -26.2525   41.9927   17.5131 C.3         1 AAH      -0.0110
     19 C19       -25.5732   43.1646   16.7372 C.3         1 AAH      -0.0366
     20 C20       -24.7343   44.1472   17.6089 C.3         1 AAH       0.0004
     21 C21       -24.1614   43.5560   18.8400 C.2         1 AAH       0.0348
     22 O22       -23.3489   42.4710   18.7657 O.co2       1 AAH      -0.5690
     23 O23       -24.4695   44.0713   20.0583 O.co2       1 AAH      -0.5690
     24 H1        -22.2362   35.8813   17.7269 H           1 AAH       0.0676
     25 H2        -23.8640   37.6052   17.9843 H           1 AAH       0.0576
     26 H3        -21.8603   39.9185   15.0712 H           1 AAH       0.0576
     27 H4        -20.2551   38.1908   14.7924 H           1 AAH       0.0676
     28 H5        -23.6348   40.9411   16.2936 H           1 AAH       0.0994
     29 H6        -24.0142   40.2044   17.8410 H           1 AAH       0.0994
     30 H7        -25.6611   38.9178   16.8352 H           1 AAH       0.2064
     31 H8        -26.5090   38.8139   14.7346 H           1 AAH       0.1014
     32 H9        -24.8163   38.4220   14.7411 H           1 AAH       0.1014
     33 H10       -27.2493   40.1415   17.2052 H           1 AAH       0.0815
     34 H11       -27.0552   41.0760   15.7556 H           1 AAH       0.0815
     35 H12       -25.6560   41.7130   18.3889 H           1 AAH       0.0318
     36 H13       -27.2109   42.3863   17.8818 H           1 AAH       0.0318
     37 H14       -26.3471   43.7582   16.2253 H           1 AAH       0.0285
     38 H15       -24.9081   42.7778   15.9568 H           1 AAH       0.0285
     39 H16       -25.3520   45.0257   17.8673 H           1 AAH       0.0430
     40 H17       -23.8821   44.5090   17.0052 H           1 AAH       0.0430
@<TRIPOS>BOND
     1     1     6  ar
     2     1     2  ar
     3     2     3  ar
     4     3    10   1
     5     3     4  ar
     6     4     5  ar
     7     5     6  ar
     8     6     7   1
     9     7     9   2
    10     7     8   2
    11    10    11   1
    12    11    17   1
    13    11    12   1
    14    12    13   1
    15    13    16  ar
    16    13    15  ar
    17    13    14  ar
    18    17    18   1
    19    18    19   1
    20    19    20   1
    21    20    21   1
    22    21    23  ar
    23    21    22  ar
    24     1    24   1
    25     2    25   1
    26     4    26   1
    27     5    27   1
    28    10    28   1
    29    10    29   1
    30    11    30   1
    31    12    31   1
    32    12    32   1
    33    17    33   1
    34    17    34   1
    35    18    35   1
    36    18    36   1
    37    19    37   1
    38    19    38   1
    39    20    39   1
    40    20    40   1
@<TRIPOS>SUBSTRUCTURE
     1  AAH      1

