@<TRIPOS>MOLECULE
1kel_ligand_004
    40    40
SMALL
GAST_HUCK
****
This file was generated by PARSER (from files_GN.cpp)

@<TRIPOS>ATOM
      1 C1        -25.5571   41.8930   19.2112 C.ar        1 AAH      -0.0251
      2 C2        -24.6354   40.8939   18.8529 C.ar        1 AAH      -0.0467
      3 C3        -23.7814   41.0598   17.7362 C.ar        1 AAH       0.0074
      4 C4        -23.8176   42.2911   17.0441 C.ar        1 AAH      -0.0467
      5 C5        -24.7322   43.2965   17.4193 C.ar        1 AAH      -0.0251
      6 C6        -25.6480   43.1012   18.4827 C.ar        1 AAH       0.1925
      7 N7        -26.5907   44.0396   18.7852 N.2         1 AAH       0.3095
      8 O8        -27.3905   43.8949   19.6761 O.2         1 AAH       0.1751
      9 O9        -26.7246   45.1436   18.1007 O.2         1 AAH       0.1751
     10 C10       -22.8540   39.9617   17.3336 C.3         1 AAH       0.0060
     11 N11       -22.8399   39.5574   15.8796 N.4         1 AAH       0.2598
     12 C12       -24.1762   39.4304   15.1904 C.3         1 AAH       0.0389
     13 P13       -25.3818   38.4798   15.8231 P.3         1 AAH       0.1070
     14 O14       -24.9852   37.1083   16.0158 O.co2       1 AAH      -0.5587
     15 O15       -25.8977   38.9960   17.0700 O.co2       1 AAH      -0.5587
     16 O16       -26.5027   38.4370   14.9117 O.co2       1 AAH      -0.5587
     17 C17       -21.8014   38.5071   15.5230 C.3         1 AAH      -0.0289
     18 C18       -21.5030   37.2787   16.4482 C.3         1 AAH      -0.0110
     19 C19       -21.7902   35.8742   15.8363 C.3         1 AAH      -0.0366
     20 C20       -21.8598   34.7191   16.8792 C.3         1 AAH       0.0004
     21 C21       -22.9493   34.7951   17.8683 C.2         1 AAH       0.0348
     22 O22       -23.7274   35.8915   18.0414 O.co2       1 AAH      -0.5690
     23 O23       -23.2180   33.7308   18.6626 O.co2       1 AAH      -0.5690
     24 H1        -26.1719   41.7166   20.0063 H           1 AAH       0.0676
     25 H2        -24.6097   40.0352   19.4027 H           1 AAH       0.0576
     26 H3        -23.1965   42.4538   16.2478 H           1 AAH       0.0576
     27 H4        -24.7289   44.1696   16.8918 H           1 AAH       0.0676
     28 H5        -23.0838   39.0787   17.9314 H           1 AAH       0.0994
     29 H6        -21.8446   40.2877   17.6007 H           1 AAH       0.0994
     30 H7        -22.4630   40.3938   15.4211 H           1 AAH       0.2064
     31 H8        -24.0087   39.0999   14.1593 H           1 AAH       0.1014
     32 H9        -24.5963   40.4331   15.0990 H           1 AAH       0.1014
     33 H10       -20.8633   39.0604   15.4276 H           1 AAH       0.0815
     34 H11       -21.9921   38.1417   14.5109 H           1 AAH       0.0815
     35 H12       -22.0627   37.3617   17.3768 H           1 AAH       0.0318
     36 H13       -20.4431   37.2932   16.7205 H           1 AAH       0.0318
     37 H14       -20.9941   35.6398   15.1281 H           1 AAH       0.0285
     38 H15       -22.7222   35.8829   15.2683 H           1 AAH       0.0285
     39 H16       -20.9115   34.6620   17.4187 H           1 AAH       0.0430
     40 H17       -21.9852   33.7800   16.3334 H           1 AAH       0.0430
@<TRIPOS>BOND
     1     1     6  ar
     2     1     2  ar
     3     2     3  ar
     4     3    10   1
     5     3     4  ar
     6     4     5  ar
     7     5     6  ar
     8     6     7   1
     9     7     9   2
    10     7     8   2
    11    10    11   1
    12    11    17   1
    13    11    12   1
    14    12    13   1
    15    13    16  ar
    16    13    15  ar
    17    13    14  ar
    18    17    18   1
    19    18    19   1
    20    19    20   1
    21    20    21   1
    22    21    23  ar
    23    21    22  ar
    24     1    24   1
    25     2    25   1
    26     4    26   1
    27     5    27   1
    28    10    28   1
    29    10    29   1
    30    11    30   1
    31    12    31   1
    32    12    32   1
    33    17    33   1
    34    17    34   1
    35    18    35   1
    36    18    36   1
    37    19    37   1
    38    19    38   1
    39    20    39   1
    40    20    40   1
@<TRIPOS>SUBSTRUCTURE
     1  AAH      1

