@<TRIPOS>MOLECULE
1kel_ligand_001
    40    40
SMALL
GAST_HUCK
****
This file was generated by PARSER (from files_GN.cpp)

@<TRIPOS>ATOM
      1 C1        -21.2741   36.0375   16.4947 C.ar        1 AAH      -0.0251
      2 C2        -21.2353   37.3686   16.0336 C.ar        1 AAH      -0.0467
      3 C3        -22.2060   38.3143   16.4493 C.ar        1 AAH       0.0074
      4 C4        -23.2143   37.8782   17.3381 C.ar        1 AAH      -0.0467
      5 C5        -23.2519   36.5459   17.7973 C.ar        1 AAH      -0.0251
      6 C6        -22.2854   35.5925   17.3851 C.ar        1 AAH       0.1925
      7 N7        -22.3233   34.3065   17.8483 N.2         1 AAH       0.3095
      8 O8        -21.4804   33.4916   17.5600 O.2         1 AAH       0.1751
      9 O9        -23.2726   33.8788   18.6363 O.2         1 AAH       0.1751
     10 C10       -22.1111   39.7465   16.0250 C.3         1 AAH       0.0060
     11 N11       -23.2813   40.4285   15.3535 N.4         1 AAH       0.2598
     12 C12       -23.9379   41.5843   16.0705 C.3         1 AAH       0.0389
     13 P13       -24.3886   41.5421   17.6812 P.3         1 AAH       0.1070
     14 O14       -25.0041   42.8039   18.0133 O.co2       1 AAH      -0.5587
     15 O15       -25.3199   40.5141   18.0978 O.co2       1 AAH      -0.5587
     16 O16       -23.2457   41.4599   18.5602 O.co2       1 AAH      -0.5587
     17 C17       -24.1421   39.5920   14.4329 C.3         1 AAH      -0.0289
     18 C18       -25.6092   39.2419   14.8524 C.3         1 AAH      -0.0110
     19 C19       -26.7227   39.9708   14.0343 C.3         1 AAH      -0.0366
     20 C20       -27.9755   40.3454   14.8734 C.3         1 AAH       0.0004
     21 C21       -29.2727   40.2718   14.1630 C.2         1 AAH       0.0348
     22 O22       -29.3774   39.9367   12.8544 O.co2       1 AAH      -0.5690
     23 O23       -30.4185   40.4486   14.8607 O.co2       1 AAH      -0.5690
     24 H1        -20.5421   35.3908   16.1737 H           1 AAH       0.0676
     25 H2        -20.4803   37.6449   15.3972 H           1 AAH       0.0576
     26 H3        -23.9072   38.5405   17.6907 H           1 AAH       0.0576
     27 H4        -24.0011   36.2821   18.4416 H           1 AAH       0.0676
     28 H5        -21.2970   39.8267   15.2975 H           1 AAH       0.0994
     29 H6        -21.7738   40.3197   16.8918 H           1 AAH       0.0994
     30 H7        -22.7737   40.9602   14.6433 H           1 AAH       0.2064
     31 H8        -24.8284   41.8886   15.5078 H           1 AAH       0.1014
     32 H9        -23.2362   42.4241   15.9872 H           1 AAH       0.1014
     33 H10       -23.6214   38.6513   14.2079 H           1 AAH       0.0815
     34 H11       -24.1686   40.1184   13.4682 H           1 AAH       0.0815
     35 H12       -25.7269   39.4359   15.9096 H           1 AAH       0.0318
     36 H13       -25.7610   38.1643   14.7311 H           1 AAH       0.0318
     37 H14       -27.0162   39.3135   13.2117 H           1 AAH       0.0285
     38 H15       -26.3356   40.8933   13.5958 H           1 AAH       0.0285
     39 H16       -27.8521   41.3675   15.2469 H           1 AAH       0.0430
     40 H17       -28.0471   39.6800   15.7354 H           1 AAH       0.0430
@<TRIPOS>BOND
     1     1     6  ar
     2     1     2  ar
     3     2     3  ar
     4     3    10   1
     5     3     4  ar
     6     4     5  ar
     7     5     6  ar
     8     6     7   1
     9     7     9   2
    10     7     8   2
    11    10    11   1
    12    11    17   1
    13    11    12   1
    14    12    13   1
    15    13    16  ar
    16    13    15  ar
    17    13    14  ar
    18    17    18   1
    19    18    19   1
    20    19    20   1
    21    20    21   1
    22    21    23  ar
    23    21    22  ar
    24     1    24   1
    25     2    25   1
    26     4    26   1
    27     5    27   1
    28    10    28   1
    29    10    29   1
    30    11    30   1
    31    12    31   1
    32    12    32   1
    33    17    33   1
    34    17    34   1
    35    18    35   1
    36    18    36   1
    37    19    37   1
    38    19    38   1
    39    20    39   1
    40    20    40   1
@<TRIPOS>SUBSTRUCTURE
     1  AAH      1

