@<TRIPOS>MOLECULE
1kel_ligand_022
    40    40
SMALL
GAST_HUCK
****
This file was generated by PARSER (from files_GN.cpp)

@<TRIPOS>ATOM
      1 C1        -24.7219   41.1422   18.8605 C.ar        1 AAH      -0.0251
      2 C2        -24.1721   39.8836   18.5559 C.ar        1 AAH      -0.0467
      3 C3        -23.2983   39.7238   17.4558 C.ar        1 AAH       0.0074
      4 C4        -22.9844   40.8571   16.6796 C.ar        1 AAH      -0.0467
      5 C5        -23.5694   42.1030   16.9591 C.ar        1 AAH      -0.0251
      6 C6        -24.4476   42.2798   18.0585 C.ar        1 AAH       0.1925
      7 N7        -25.0207   43.4910   18.3152 N.2         1 AAH       0.3095
      8 O8        -25.7605   43.6778   19.2445 O.2         1 AAH       0.1751
      9 O9        -24.8498   44.5259   17.5316 O.2         1 AAH       0.1751
     10 C10       -22.6919   38.3915   17.1749 C.3         1 AAH       0.0060
     11 N11       -23.6822   37.4101   16.6137 N.4         1 AAH       0.2598
     12 C12       -23.6819   36.0595   17.2882 C.3         1 AAH       0.0389
     13 P13       -22.3864   35.0441   17.0178 P.3         1 AAH       0.1070
     14 O14       -21.1192   35.6868   17.2575 O.co2       1 AAH      -0.5587
     15 O15       -22.4572   33.8954   17.8891 O.co2       1 AAH      -0.5587
     16 O16       -22.3677   34.5344   15.6688 O.co2       1 AAH      -0.5587
     17 C17       -23.7430   37.3611   15.1027 C.3         1 AAH      -0.0289
     18 C18       -25.0260   38.0321   14.5211 C.3         1 AAH      -0.0110
     19 C19       -24.8987   39.5533   14.1566 C.3         1 AAH      -0.0366
     20 C20       -25.8526   40.6040   14.8261 C.3         1 AAH       0.0004
     21 C21       -26.8713   40.0793   15.7498 C.2         1 AAH       0.0348
     22 O22       -27.7590   39.1855   15.2757 O.co2       1 AAH      -0.5690
     23 O23       -26.6380   40.0813   17.0845 O.co2       1 AAH      -0.5690
     24 H1        -25.3425   41.2162   19.6682 H           1 AAH       0.0676
     25 H2        -24.4126   39.0809   19.1429 H           1 AAH       0.0576
     26 H3        -22.3506   40.7726   15.8835 H           1 AAH       0.0576
     27 H4        -23.3384   42.8931   16.3551 H           1 AAH       0.0676
     28 H5        -22.2960   38.0307   18.1246 H           1 AAH       0.0994
     29 H6        -21.8168   38.4850   16.5219 H           1 AAH       0.0994
     30 H7        -24.5889   37.7951   16.8958 H           1 AAH       0.2064
     31 H8        -24.5896   35.5233   17.0053 H           1 AAH       0.1014
     32 H9        -23.7555   36.2182   18.3671 H           1 AAH       0.1014
     33 H10       -23.7677   36.3250   14.7637 H           1 AAH       0.0815
     34 H11       -22.8525   37.7917   14.6321 H           1 AAH       0.0815
     35 H12       -25.8354   37.8408   15.2285 H           1 AAH       0.0318
     36 H13       -25.3101   37.5008   13.6082 H           1 AAH       0.0318
     37 H14       -25.0227   39.6456   13.0701 H           1 AAH       0.0285
     38 H15       -23.8746   39.8794   14.3412 H           1 AAH       0.0285
     39 H16       -26.3824   41.1600   14.0461 H           1 AAH       0.0430
     40 H17       -25.2547   41.3424   15.3739 H           1 AAH       0.0430
@<TRIPOS>BOND
     1     1     6  ar
     2     1     2  ar
     3     2     3  ar
     4     3    10   1
     5     3     4  ar
     6     4     5  ar
     7     5     6  ar
     8     6     7   1
     9     7     9   2
    10     7     8   2
    11    10    11   1
    12    11    17   1
    13    11    12   1
    14    12    13   1
    15    13    16  ar
    16    13    15  ar
    17    13    14  ar
    18    17    18   1
    19    18    19   1
    20    19    20   1
    21    20    21   1
    22    21    23  ar
    23    21    22  ar
    24     1    24   1
    25     2    25   1
    26     4    26   1
    27     5    27   1
    28    10    28   1
    29    10    29   1
    30    11    30   1
    31    12    31   1
    32    12    32   1
    33    17    33   1
    34    17    34   1
    35    18    35   1
    36    18    36   1
    37    19    37   1
    38    19    38   1
    39    20    39   1
    40    20    40   1
@<TRIPOS>SUBSTRUCTURE
     1  AAH      1

