@<TRIPOS>MOLECULE
1kel_ligand_033
    40    40
SMALL
GAST_HUCK
****
This file was generated by PARSER (from files_GN.cpp)

@<TRIPOS>ATOM
      1 C1        -25.8332   42.7012   13.6624 C.ar        1 AAH      -0.0251
      2 C2        -24.7506   41.9514   14.1590 C.ar        1 AAH      -0.0467
      3 C3        -24.7966   41.3906   15.4527 C.ar        1 AAH       0.0074
      4 C4        -25.9354   41.6297   16.2488 C.ar        1 AAH      -0.0467
      5 C5        -27.0154   42.3834   15.7542 C.ar        1 AAH      -0.0251
      6 C6        -26.9910   42.9247   14.4438 C.ar        1 AAH       0.1925
      7 N7        -28.0478   43.6531   13.9695 N.2         1 AAH       0.3095
      8 O8        -28.0721   44.1116   12.8534 O.2         1 AAH       0.1751
      9 O9        -29.1192   43.8861   14.6839 O.2         1 AAH       0.1751
     10 C10       -23.6832   40.5422   15.9398 C.3         1 AAH       0.0060
     11 N11       -23.4805   39.2785   15.1309 N.4         1 AAH       0.2598
     12 C12       -24.5487   38.2273   15.3028 C.3         1 AAH       0.0389
     13 P13       -26.0369   38.5058   14.5973 P.3         1 AAH       0.1070
     14 O14       -27.0766   38.5197   15.6026 O.co2       1 AAH      -0.5587
     15 O15       -26.1550   39.7028   13.7933 O.co2       1 AAH      -0.5587
     16 O16       -26.4036   37.4276   13.7040 O.co2       1 AAH      -0.5587
     17 C17       -22.0866   38.7110   15.2894 C.3         1 AAH      -0.0289
     18 C18       -21.7136   38.0483   16.6569 C.3         1 AAH      -0.0110
     19 C19       -22.1205   36.5575   16.8562 C.3         1 AAH      -0.0366
     20 C20       -21.0142   35.5285   16.4978 C.3         1 AAH       0.0004
     21 C21       -21.1838   34.1931   17.1111 C.2         1 AAH       0.0348
     22 O22       -20.2046   33.2682   16.9551 O.co2       1 AAH      -0.5690
     23 O23       -22.2277   33.8717   17.9069 O.co2       1 AAH      -0.5690
     24 H1        -25.7731   43.0739   12.7115 H           1 AAH       0.0676
     25 H2        -23.9336   41.8079   13.5621 H           1 AAH       0.0576
     26 H3        -26.0041   41.2378   17.1936 H           1 AAH       0.0576
     27 H4        -27.8267   42.5257   16.3642 H           1 AAH       0.0676
     28 H5        -23.8259   40.2824   16.9950 H           1 AAH       0.0994
     29 H6        -22.7872   41.1756   15.8878 H           1 AAH       0.0994
     30 H7        -23.5215   39.5591   14.1503 H           1 AAH       0.2064
     31 H8        -24.7019   38.0340   16.3724 H           1 AAH       0.1014
     32 H9        -24.2134   37.2862   14.8617 H           1 AAH       0.1014
     33 H10       -21.3826   39.5302   15.1196 H           1 AAH       0.0815
     34 H11       -21.8885   37.9968   14.4845 H           1 AAH       0.0815
     35 H12       -22.1590   38.6322   17.4622 H           1 AAH       0.0318
     36 H13       -20.6269   38.1251   16.7903 H           1 AAH       0.0318
     37 H14       -23.0220   36.3215   16.2888 H           1 AAH       0.0285
     38 H15       -22.3793   36.4217   17.9040 H           1 AAH       0.0285
     39 H16       -20.0489   35.9215   16.8184 H           1 AAH       0.0430
     40 H17       -20.9815   35.4046   15.4087 H           1 AAH       0.0430
@<TRIPOS>BOND
     1     1     6  ar
     2     1     2  ar
     3     2     3  ar
     4     3    10   1
     5     3     4  ar
     6     4     5  ar
     7     5     6  ar
     8     6     7   1
     9     7     9   2
    10     7     8   2
    11    10    11   1
    12    11    17   1
    13    11    12   1
    14    12    13   1
    15    13    16  ar
    16    13    15  ar
    17    13    14  ar
    18    17    18   1
    19    18    19   1
    20    19    20   1
    21    20    21   1
    22    21    23  ar
    23    21    22  ar
    24     1    24   1
    25     2    25   1
    26     4    26   1
    27     5    27   1
    28    10    28   1
    29    10    29   1
    30    11    30   1
    31    12    31   1
    32    12    32   1
    33    17    33   1
    34    17    34   1
    35    18    35   1
    36    18    36   1
    37    19    37   1
    38    19    38   1
    39    20    39   1
    40    20    40   1
@<TRIPOS>SUBSTRUCTURE
     1  AAH      1

