@<TRIPOS>MOLECULE
1kel_ligand_009
    40    40
SMALL
GAST_HUCK
****
This file was generated by PARSER (from files_GN.cpp)

@<TRIPOS>ATOM
      1 C1        -23.2402   36.4096   17.7664 C.ar        1 AAH      -0.0251
      2 C2        -23.7166   37.7283   17.7141 C.ar        1 AAH      -0.0467
      3 C3        -22.9615   38.7517   17.0949 C.ar        1 AAH       0.0074
      4 C4        -21.7184   38.3993   16.5109 C.ar        1 AAH      -0.0467
      5 C5        -21.2513   37.0752   16.5516 C.ar        1 AAH      -0.0251
      6 C6        -21.9919   36.0454   17.1919 C.ar        1 AAH       0.1925
      7 N7        -21.5224   34.7702   17.2673 N.2         1 AAH       0.3095
      8 O8        -22.1024   33.8929   17.8636 O.2         1 AAH       0.1751
      9 O9        -20.3886   34.4113   16.7260 O.2         1 AAH       0.1751
     10 C10       -23.4824   40.1384   17.0783 C.3         1 AAH       0.0060
     11 N11       -24.4684   40.3312   15.9391 N.4         1 AAH       0.2598
     12 C12       -23.7475   40.7136   14.6641 C.3         1 AAH       0.0389
     13 P13       -24.6273   40.9479   13.2587 P.3         1 AAH       0.1070
     14 O14       -23.8138   41.6476   12.2921 O.co2       1 AAH      -0.5587
     15 O15       -25.0629   39.7101   12.6672 O.co2       1 AAH      -0.5587
     16 O16       -25.7639   41.8093   13.4933 O.co2       1 AAH      -0.5587
     17 C17       -25.6618   41.1984   16.2870 C.3         1 AAH      -0.0289
     18 C18       -26.9994   40.5819   15.7685 C.3         1 AAH      -0.0110
     19 C19       -27.9679   41.6408   15.1737 C.3         1 AAH      -0.0366
     20 C20       -28.9174   41.0479   14.0949 C.3         1 AAH       0.0004
     21 C21       -30.2762   41.6075   14.1977 C.2         1 AAH       0.0348
     22 O22       -31.0647   41.2499   15.2393 O.co2       1 AAH      -0.5690
     23 O23       -30.8026   42.3586   13.1999 O.co2       1 AAH      -0.5690
     24 H1        -23.8201   35.7031   18.2279 H           1 AAH       0.0676
     25 H2        -24.6173   37.9504   18.1469 H           1 AAH       0.0576
     26 H3        -21.1414   39.1179   16.0626 H           1 AAH       0.0576
     27 H4        -20.3454   36.8646   16.1201 H           1 AAH       0.0676
     28 H5        -22.6491   40.8479   17.0193 H           1 AAH       0.0994
     29 H6        -23.9239   40.3190   18.0611 H           1 AAH       0.0994
     30 H7        -24.8612   39.3987   15.7682 H           1 AAH       0.2064
     31 H8        -23.0381   39.9128   14.4315 H           1 AAH       0.1014
     32 H9        -23.1587   41.6216   14.8452 H           1 AAH       0.1014
     33 H10       -25.5069   42.2072   15.8878 H           1 AAH       0.0815
     34 H11       -25.7889   41.3298   17.3654 H           1 AAH       0.0815
     35 H12       -27.5020   40.0726   16.6060 H           1 AAH       0.0318
     36 H13       -26.7985   39.8227   15.0026 H           1 AAH       0.0318
     37 H14       -27.3762   42.4334   14.6981 H           1 AAH       0.0285
     38 H15       -28.5376   42.0820   15.9981 H           1 AAH       0.0285
     39 H16       -28.9861   39.9535   14.1865 H           1 AAH       0.0430
     40 H17       -28.5067   41.2825   13.1049 H           1 AAH       0.0430
@<TRIPOS>BOND
     1     1     6  ar
     2     1     2  ar
     3     2     3  ar
     4     3    10   1
     5     3     4  ar
     6     4     5  ar
     7     5     6  ar
     8     6     7   1
     9     7     9   2
    10     7     8   2
    11    10    11   1
    12    11    17   1
    13    11    12   1
    14    12    13   1
    15    13    16  ar
    16    13    15  ar
    17    13    14  ar
    18    17    18   1
    19    18    19   1
    20    19    20   1
    21    20    21   1
    22    21    23  ar
    23    21    22  ar
    24     1    24   1
    25     2    25   1
    26     4    26   1
    27     5    27   1
    28    10    28   1
    29    10    29   1
    30    11    30   1
    31    12    31   1
    32    12    32   1
    33    17    33   1
    34    17    34   1
    35    18    35   1
    36    18    36   1
    37    19    37   1
    38    19    38   1
    39    20    39   1
    40    20    40   1
@<TRIPOS>SUBSTRUCTURE
     1  AAH      1

