@<TRIPOS>MOLECULE
1kel_ligand_040
    40    40
SMALL
GAST_HUCK
****
This file was generated by PARSER (from files_GN.cpp)

@<TRIPOS>ATOM
      1 C1        -27.4577   43.4618   15.5197 C.ar        1 AAH      -0.0251
      2 C2        -27.3840   42.0781   15.2947 C.ar        1 AAH      -0.0467
      3 C3        -26.7085   41.2258   16.2020 C.ar        1 AAH       0.0074
      4 C4        -26.1364   41.8054   17.3559 C.ar        1 AAH      -0.0467
      5 C5        -26.2156   43.1918   17.5851 C.ar        1 AAH      -0.0251
      6 C6        -26.8718   44.0563   16.6711 C.ar        1 AAH       0.1925
      7 N7        -26.9467   45.3988   16.8900 N.2         1 AAH       0.3095
      8 O8        -27.5105   46.1530   16.1343 O.2         1 AAH       0.1751
      9 O9        -26.4048   45.9684   17.9363 O.2         1 AAH       0.1751
     10 C10       -26.6238   39.7593   15.9479 C.3         1 AAH       0.0060
     11 N11       -25.2359   39.1690   15.8803 N.4         1 AAH       0.2598
     12 C12       -24.3208   39.8322   14.8668 C.3         1 AAH       0.0389
     13 P13       -23.0378   40.6401   15.5621 P.3         1 AAH       0.1070
     14 O14       -22.8377   41.9084   14.9034 O.co2       1 AAH      -0.5587
     15 O15       -23.2010   40.9158   16.9680 O.co2       1 AAH      -0.5587
     16 O16       -21.8078   39.9066   15.3973 O.co2       1 AAH      -0.5587
     17 C17       -25.2872   37.6554   15.8082 C.3         1 AAH      -0.0289
     18 C18       -24.4066   36.9767   16.8993 C.3         1 AAH      -0.0110
     19 C19       -22.8732   37.0394   16.6311 C.3         1 AAH      -0.0366
     20 C20       -22.1723   35.6517   16.5587 C.3         1 AAH       0.0004
     21 C21       -22.4777   34.6976   17.6413 C.2         1 AAH       0.0348
     22 O22       -23.4884   34.8838   18.5214 O.co2       1 AAH      -0.5690
     23 O23       -21.7532   33.5561   17.7318 O.co2       1 AAH      -0.5690
     24 H1        -27.9425   44.0442   14.8303 H           1 AAH       0.0676
     25 H2        -27.8013   41.6997   14.4400 H           1 AAH       0.0576
     26 H3        -25.6418   41.2177   18.0303 H           1 AAH       0.0576
     27 H4        -25.7835   43.5699   18.4315 H           1 AAH       0.0676
     28 H5        -27.1525   39.5184   15.0191 H           1 AAH       0.0994
     29 H6        -27.1787   39.2710   16.7548 H           1 AAH       0.0994
     30 H7        -24.8283   39.3836   16.7946 H           1 AAH       0.2064
     31 H8        -24.8659   40.5537   14.2478 H           1 AAH       0.1014
     32 H9        -23.8891   39.1219   14.1597 H           1 AAH       0.1014
     33 H10       -24.9856   37.2646   14.8322 H           1 AAH       0.0815
     34 H11       -26.3054   37.2782   15.9495 H           1 AAH       0.0815
     35 H12       -24.7244   35.9380   16.9753 H           1 AAH       0.0318
     36 H13       -24.6264   37.4438   17.8621 H           1 AAH       0.0318
     37 H14       -22.3942   37.6459   17.4078 H           1 AAH       0.0285
     38 H15       -22.6841   37.5289   15.6695 H           1 AAH       0.0285
     39 H16       -21.0910   35.8160   16.5537 H           1 AAH       0.0430
     40 H17       -22.4422   35.1861   15.6039 H           1 AAH       0.0430
@<TRIPOS>BOND
     1     1     6  ar
     2     1     2  ar
     3     2     3  ar
     4     3    10   1
     5     3     4  ar
     6     4     5  ar
     7     5     6  ar
     8     6     7   1
     9     7     9   2
    10     7     8   2
    11    10    11   1
    12    11    17   1
    13    11    12   1
    14    12    13   1
    15    13    16  ar
    16    13    15  ar
    17    13    14  ar
    18    17    18   1
    19    18    19   1
    20    19    20   1
    21    20    21   1
    22    21    23  ar
    23    21    22  ar
    24     1    24   1
    25     2    25   1
    26     4    26   1
    27     5    27   1
    28    10    28   1
    29    10    29   1
    30    11    30   1
    31    12    31   1
    32    12    32   1
    33    17    33   1
    34    17    34   1
    35    18    35   1
    36    18    36   1
    37    19    37   1
    38    19    38   1
    39    20    39   1
    40    20    40   1
@<TRIPOS>SUBSTRUCTURE
     1  AAH      1

