@<TRIPOS>MOLECULE
1kel_ligand_016
    40    40
SMALL
GAST_HUCK
****
This file was generated by PARSER (from files_GN.cpp)

@<TRIPOS>ATOM
      1 C1        -23.8217   42.7168   10.7434 C.ar        1 AAH      -0.0251
      2 C2        -23.4382   42.4877   12.0751 C.ar        1 AAH      -0.0467
      3 C3        -24.3609   42.0054   13.0281 C.ar        1 AAH       0.0074
      4 C4        -25.6923   41.7853   12.6138 C.ar        1 AAH      -0.0467
      5 C5        -26.0740   41.9875   11.2733 C.ar        1 AAH      -0.0251
      6 C6        -25.1438   42.4449   10.3036 C.ar        1 AAH       0.1925
      7 N7        -25.5161   42.6340    9.0042 N.2         1 AAH       0.3095
      8 O8        -24.7529   43.0357    8.1631 O.2         1 AAH       0.1751
      9 O9        -26.7216   42.3700    8.5779 O.2         1 AAH       0.1751
     10 C10       -23.9349   41.7736   14.4318 C.3         1 AAH       0.0060
     11 N11       -23.7653   40.3339   14.8262 N.4         1 AAH       0.2598
     12 C12       -25.0272   39.5128   14.7792 C.3         1 AAH       0.0389
     13 P13       -26.3294   39.8835   15.7530 P.3         1 AAH       0.1070
     14 O14       -26.8962   41.1839   15.4968 O.co2       1 AAH      -0.5587
     15 O15       -27.3768   38.9351   15.4743 O.co2       1 AAH      -0.5587
     16 O16       -26.0708   39.7548   17.1655 O.co2       1 AAH      -0.5587
     17 C17       -22.9298   40.1674   16.0753 C.3         1 AAH      -0.0289
     18 C18       -21.6098   39.3577   15.8920 C.3         1 AAH      -0.0110
     19 C19       -21.7525   37.8574   15.5081 C.3         1 AAH      -0.0366
     20 C20       -21.8331   36.8807   16.7215 C.3         1 AAH       0.0004
     21 C21       -22.6194   35.6589   16.4586 C.2         1 AAH       0.0348
     22 O22       -22.0996   34.6376   15.7409 O.co2       1 AAH      -0.5690
     23 O23       -23.7762   35.4468   17.1294 O.co2       1 AAH      -0.5690
     24 H1        -23.1231   43.0733   10.0893 H           1 AAH       0.0676
     25 H2        -22.4715   42.6855   12.3503 H           1 AAH       0.0576
     26 H3        -26.4028   41.4711   13.2768 H           1 AAH       0.0576
     27 H4        -27.0493   41.7912   11.0069 H           1 AAH       0.0676
     28 H5        -24.6287   42.2516   15.1305 H           1 AAH       0.0994
     29 H6        -22.9798   42.2860   14.5471 H           1 AAH       0.0994
     30 H7        -23.1825   39.9419   14.0778 H           1 AAH       0.2064
     31 H8        -24.7896   38.4763   14.9801 H           1 AAH       0.1014
     32 H9        -25.3954   39.5070   13.7564 H           1 AAH       0.1014
     33 H10       -23.5044   39.7342   16.8930 H           1 AAH       0.0815
     34 H11       -22.6079   41.1426   16.4585 H           1 AAH       0.0815
     35 H12       -21.0403   39.4020   16.8264 H           1 AAH       0.0318
     36 H13       -21.0105   39.8547   15.1271 H           1 AAH       0.0318
     37 H14       -20.8773   37.5777   14.9175 H           1 AAH       0.0285
     38 H15       -22.6005   37.7375   14.8404 H           1 AAH       0.0285
     39 H16       -22.2728   37.3607   17.5958 H           1 AAH       0.0430
     40 H17       -20.8187   36.5846   17.0078 H           1 AAH       0.0430
@<TRIPOS>BOND
     1     1     6  ar
     2     1     2  ar
     3     2     3  ar
     4     3    10   1
     5     3     4  ar
     6     4     5  ar
     7     5     6  ar
     8     6     7   1
     9     7     9   2
    10     7     8   2
    11    10    11   1
    12    11    17   1
    13    11    12   1
    14    12    13   1
    15    13    16  ar
    16    13    15  ar
    17    13    14  ar
    18    17    18   1
    19    18    19   1
    20    19    20   1
    21    20    21   1
    22    21    23  ar
    23    21    22  ar
    24     1    24   1
    25     2    25   1
    26     4    26   1
    27     5    27   1
    28    10    28   1
    29    10    29   1
    30    11    30   1
    31    12    31   1
    32    12    32   1
    33    17    33   1
    34    17    34   1
    35    18    35   1
    36    18    36   1
    37    19    37   1
    38    19    38   1
    39    20    39   1
    40    20    40   1
@<TRIPOS>SUBSTRUCTURE
     1  AAH      1

