@<TRIPOS>MOLECULE
1kel_ligand_053
    40    40
SMALL
GAST_HUCK
****
This file was generated by PARSER (from files_GN.cpp)

@<TRIPOS>ATOM
      1 C1        -26.8977   44.4786   17.1008 C.ar        1 AAH      -0.0251
      2 C2        -25.6339   44.2536   17.6803 C.ar        1 AAH      -0.0467
      3 C3        -25.5105   43.6465   18.9510 C.ar        1 AAH       0.0074
      4 C4        -26.6967   43.3409   19.6538 C.ar        1 AAH      -0.0467
      5 C5        -27.9585   43.5414   19.0648 C.ar        1 AAH      -0.0251
      6 C6        -28.0894   44.1229   17.7775 C.ar        1 AAH       0.1925
      7 N7        -29.3222   44.3562   17.2354 N.2         1 AAH       0.3095
      8 O8        -29.4723   44.8624   16.1517 O.2         1 AAH       0.1751
      9 O9        -30.4283   44.0276   17.8467 O.2         1 AAH       0.1751
     10 C10       -24.1711   43.3439   19.5383 C.3         1 AAH       0.0060
     11 N11       -24.0441   42.0227   20.2590 N.4         1 AAH       0.2598
     12 C12       -22.7049   41.7651   20.9050 C.3         1 AAH       0.0389
     13 P13       -22.2714   42.7746   22.1567 P.3         1 AAH       0.1070
     14 O14       -21.2199   42.1655   22.9305 O.co2       1 AAH      -0.5587
     15 O15       -21.7823   44.0476   21.6905 O.co2       1 AAH      -0.5587
     16 O16       -23.3885   42.9974   23.0392 O.co2       1 AAH      -0.5587
     17 C17       -24.5286   40.8323   19.4689 C.3         1 AAH      -0.0289
     18 C18       -23.7917   40.4922   18.1342 C.3         1 AAH      -0.0110
     19 C19       -24.5432   40.7934   16.7998 C.3         1 AAH      -0.0366
     20 C20       -25.9253   40.0893   16.6552 C.3         1 AAH       0.0004
     21 C21       -26.4228   39.9277   15.2723 C.2         1 AAH       0.0348
     22 O22       -27.4305   39.0535   15.0283 O.co2       1 AAH      -0.5690
     23 O23       -25.8806   40.5869   14.2213 O.co2       1 AAH      -0.5690
     24 H1        -26.9345   44.9061   16.1699 H           1 AAH       0.0676
     25 H2        -24.7972   44.5265   17.1607 H           1 AAH       0.0576
     26 H3        -26.6508   42.9369   20.5922 H           1 AAH       0.0576
     27 H4        -28.7888   43.2552   19.5888 H           1 AAH       0.0676
     28 H5        -23.9698   44.1563   20.2401 H           1 AAH       0.0994
     29 H6        -23.4075   43.4077   18.7550 H           1 AAH       0.0994
     30 H7        -24.6985   42.0906   21.0450 H           1 AAH       0.2064
     31 H8        -21.9117   41.7913   20.1582 H           1 AAH       0.1014
     32 H9        -22.7017   40.7625   21.3441 H           1 AAH       0.1014
     33 H10       -25.5932   40.9490   19.2751 H           1 AAH       0.0815
     34 H11       -24.4691   39.9505   20.1153 H           1 AAH       0.0815
     35 H12       -23.5547   39.4202   18.1390 H           1 AAH       0.0318
     36 H13       -22.8358   41.0252   18.1094 H           1 AAH       0.0318
     37 H14       -23.8979   40.4595   15.9823 H           1 AAH       0.0285
     38 H15       -24.6726   41.8703   16.6919 H           1 AAH       0.0285
     39 H16       -26.6835   40.6547   17.2040 H           1 AAH       0.0430
     40 H17       -25.8512   39.0879   17.0888 H           1 AAH       0.0430
@<TRIPOS>BOND
     1     1     6  ar
     2     1     2  ar
     3     2     3  ar
     4     3    10   1
     5     3     4  ar
     6     4     5  ar
     7     5     6  ar
     8     6     7   1
     9     7     9   2
    10     7     8   2
    11    10    11   1
    12    11    17   1
    13    11    12   1
    14    12    13   1
    15    13    16  ar
    16    13    15  ar
    17    13    14  ar
    18    17    18   1
    19    18    19   1
    20    19    20   1
    21    20    21   1
    22    21    23  ar
    23    21    22  ar
    24     1    24   1
    25     2    25   1
    26     4    26   1
    27     5    27   1
    28    10    28   1
    29    10    29   1
    30    11    30   1
    31    12    31   1
    32    12    32   1
    33    17    33   1
    34    17    34   1
    35    18    35   1
    36    18    36   1
    37    19    37   1
    38    19    38   1
    39    20    39   1
    40    20    40   1
@<TRIPOS>SUBSTRUCTURE
     1  AAH      1

