@<TRIPOS>MOLECULE
1kel_ligand_028
    40    40
SMALL
GAST_HUCK
****
This file was generated by PARSER (from files_GN.cpp)

@<TRIPOS>ATOM
      1 C1        -26.9978   40.8388   12.3041 C.ar        1 AAH      -0.0251
      2 C2        -26.2458   39.8917   13.0267 C.ar        1 AAH      -0.0467
      3 C3        -24.9232   40.1825   13.4341 C.ar        1 AAH       0.0074
      4 C4        -24.3760   41.4413   13.0920 C.ar        1 AAH      -0.0467
      5 C5        -25.1467   42.3979   12.4083 C.ar        1 AAH      -0.0251
      6 C6        -26.4784   42.1259   12.0112 C.ar        1 AAH       0.1925
      7 N7        -27.2136   43.0643   11.3456 N.2         1 AAH       0.3095
      8 O8        -28.3629   42.8899   11.0371 O.2         1 AAH       0.1751
      9 O9        -26.7432   44.2464   11.0579 O.2         1 AAH       0.1751
     10 C10       -24.1075   39.1694   14.1539 C.3         1 AAH       0.0060
     11 N11       -24.6826   38.6515   15.4377 N.4         1 AAH       0.2598
     12 C12       -25.0374   39.7024   16.4680 C.3         1 AAH       0.0389
     13 P13       -26.5924   40.2999   16.3131 P.3         1 AAH       0.1070
     14 O14       -27.4926   39.2746   15.8321 O.co2       1 AAH      -0.5587
     15 O15       -27.1272   40.7674   17.5749 O.co2       1 AAH      -0.5587
     16 O16       -26.6618   41.4085   15.3907 O.co2       1 AAH      -0.5587
     17 C17       -23.8651   37.5161   15.9859 C.3         1 AAH      -0.0289
     18 C18       -22.3142   37.7083   16.0037 C.3         1 AAH      -0.0110
     19 C19       -21.5498   36.5999   16.7798 C.3         1 AAH      -0.0366
     20 C20       -21.4516   35.2368   16.0467 C.3         1 AAH       0.0004
     21 C21       -21.3115   34.1127   16.9929 C.2         1 AAH       0.0348
     22 O22       -20.2530   33.2683   16.9396 O.co2       1 AAH      -0.5690
     23 O23       -22.3274   33.8237   17.8411 O.co2       1 AAH      -0.5690
     24 H1        -27.9534   40.5896   12.0292 H           1 AAH       0.0676
     25 H2        -26.6547   38.9819   13.2298 H           1 AAH       0.0576
     26 H3        -23.4200   41.6832   13.3720 H           1 AAH       0.0576
     27 H4        -24.7138   43.2995   12.1917 H           1 AAH       0.0676
     28 H5        -23.1122   39.5695   14.3545 H           1 AAH       0.0994
     29 H6        -23.9768   38.3387   13.4485 H           1 AAH       0.0994
     30 H7        -25.5618   38.2027   15.1703 H           1 AAH       0.2064
     31 H8        -24.3376   40.5404   16.4353 H           1 AAH       0.1014
     32 H9        -24.9810   39.2840   17.4751 H           1 AAH       0.1014
     33 H10       -24.1009   36.6144   15.3993 H           1 AAH       0.0815
     34 H11       -24.2102   37.3121   17.0097 H           1 AAH       0.0815
     35 H12       -22.0865   38.6675   16.4792 H           1 AAH       0.0318
     36 H13       -21.9357   37.7460   14.9735 H           1 AAH       0.0318
     37 H14       -22.0306   36.4727   17.7488 H           1 AAH       0.0285
     38 H15       -20.5265   36.9563   16.9549 H           1 AAH       0.0285
     39 H16       -20.5943   35.2480   15.3658 H           1 AAH       0.0430
     40 H17       -22.3424   35.0434   15.4607 H           1 AAH       0.0430
@<TRIPOS>BOND
     1     1     6  ar
     2     1     2  ar
     3     2     3  ar
     4     3    10   1
     5     3     4  ar
     6     4     5  ar
     7     5     6  ar
     8     6     7   1
     9     7     9   2
    10     7     8   2
    11    10    11   1
    12    11    17   1
    13    11    12   1
    14    12    13   1
    15    13    16  ar
    16    13    15  ar
    17    13    14  ar
    18    17    18   1
    19    18    19   1
    20    19    20   1
    21    20    21   1
    22    21    23  ar
    23    21    22  ar
    24     1    24   1
    25     2    25   1
    26     4    26   1
    27     5    27   1
    28    10    28   1
    29    10    29   1
    30    11    30   1
    31    12    31   1
    32    12    32   1
    33    17    33   1
    34    17    34   1
    35    18    35   1
    36    18    36   1
    37    19    37   1
    38    19    38   1
    39    20    39   1
    40    20    40   1
@<TRIPOS>SUBSTRUCTURE
     1  AAH      1

