@<TRIPOS>MOLECULE
1kel_ligand_043
    40    40
SMALL
GAST_HUCK
****
This file was generated by PARSER (from files_GN.cpp)

@<TRIPOS>ATOM
      1 C1        -22.8086   37.4449   17.3134 C.ar        1 AAH      -0.0251
      2 C2        -23.3563   38.7279   17.1420 C.ar        1 AAH      -0.0467
      3 C3        -22.7734   39.6568   16.2455 C.ar        1 AAH       0.0074
      4 C4        -21.6207   39.2566   15.5315 C.ar        1 AAH      -0.0467
      5 C5        -21.0787   37.9679   15.7016 C.ar        1 AAH      -0.0251
      6 C6        -21.6586   37.0319   16.5969 C.ar        1 AAH       0.1925
      7 N7        -21.1293   35.7851   16.7516 N.2         1 AAH       0.3095
      8 O8        -21.6004   34.9703   17.5026 O.2         1 AAH       0.1751
      9 O9        -20.0667   35.3917   16.0957 O.2         1 AAH       0.1751
     10 C10       -23.3480   41.0278   16.0938 C.3         1 AAH       0.0060
     11 N11       -24.3583   41.2579   14.9920 N.4         1 AAH       0.2598
     12 C12       -25.3709   40.1450   14.8296 C.3         1 AAH       0.0389
     13 P13       -26.6932   40.2165   15.8395 P.3         1 AAH       0.1070
     14 O14       -27.5581   39.1100   15.5158 O.co2       1 AAH      -0.5587
     15 O15       -26.3754   40.0694   17.2357 O.co2       1 AAH      -0.5587
     16 O16       -27.4275   41.4402   15.6436 O.co2       1 AAH      -0.5587
     17 C17       -23.8000   41.6693   13.6568 C.3         1 AAH      -0.0289
     18 C18       -22.4194   42.3817   13.6541 C.3         1 AAH      -0.0110
     19 C19       -22.0246   42.9433   12.2601 C.3         1 AAH      -0.0366
     20 C20       -20.7692   43.8614   12.2843 C.3         1 AAH       0.0004
     21 C21       -19.6392   43.3151   13.0556 C.2         1 AAH       0.0348
     22 O22       -18.9367   42.2520   12.5984 O.co2       1 AAH      -0.5690
     23 O23       -19.3540   43.7681   14.2913 O.co2       1 AAH      -0.5690
     24 H1        -23.2599   36.8099   17.9743 H           1 AAH       0.0676
     25 H2        -24.1809   38.9847   17.6918 H           1 AAH       0.0576
     26 H3        -21.1552   39.9087   14.9028 H           1 AAH       0.0576
     27 H4        -20.2410   37.7279   15.1696 H           1 AAH       0.0676
     28 H5        -22.5217   41.7295   15.9973 H           1 AAH       0.0994
     29 H6        -23.8320   41.3225   17.0283 H           1 AAH       0.0994
     30 H7        -24.8967   42.0742   15.2949 H           1 AAH       0.2064
     31 H8        -24.8901   39.1673   14.9415 H           1 AAH       0.1014
     32 H9        -25.7995   40.1570   13.8237 H           1 AAH       0.1014
     33 H10       -24.5066   42.3783   13.2089 H           1 AAH       0.0815
     34 H11       -23.7538   40.7998   13.0011 H           1 AAH       0.0815
     35 H12       -21.6565   41.6677   13.9666 H           1 AAH       0.0318
     36 H13       -22.4365   43.1941   14.3845 H           1 AAH       0.0318
     37 H14       -22.8596   43.5321   11.8661 H           1 AAH       0.0285
     38 H15       -21.8487   42.1217   11.5631 H           1 AAH       0.0285
     39 H16       -21.0616   44.8118   12.7143 H           1 AAH       0.0430
     40 H17       -20.4372   44.0543   11.2661 H           1 AAH       0.0430
@<TRIPOS>BOND
     1     1     6  ar
     2     1     2  ar
     3     2     3  ar
     4     3    10   1
     5     3     4  ar
     6     4     5  ar
     7     5     6  ar
     8     6     7   1
     9     7     9   2
    10     7     8   2
    11    10    11   1
    12    11    17   1
    13    11    12   1
    14    12    13   1
    15    13    16  ar
    16    13    15  ar
    17    13    14  ar
    18    17    18   1
    19    18    19   1
    20    19    20   1
    21    20    21   1
    22    21    23  ar
    23    21    22  ar
    24     1    24   1
    25     2    25   1
    26     4    26   1
    27     5    27   1
    28    10    28   1
    29    10    29   1
    30    11    30   1
    31    12    31   1
    32    12    32   1
    33    17    33   1
    34    17    34   1
    35    18    35   1
    36    18    36   1
    37    19    37   1
    38    19    38   1
    39    20    39   1
    40    20    40   1
@<TRIPOS>SUBSTRUCTURE
     1  AAH      1

