@<TRIPOS>MOLECULE
1kel_ligand_025
    40    40
SMALL
GAST_HUCK
****
This file was generated by PARSER (from files_GN.cpp)

@<TRIPOS>ATOM
      1 C1        -26.8706   39.8480   13.4710 C.ar        1 AAH      -0.0251
      2 C2        -25.5298   40.0065   13.8610 C.ar        1 AAH      -0.0467
      3 C3        -25.1951   40.6993   15.0473 C.ar        1 AAH       0.0074
      4 C4        -26.2406   41.2952   15.7845 C.ar        1 AAH      -0.0467
      5 C5        -27.5834   41.1377   15.3923 C.ar        1 AAH      -0.0251
      6 C6        -27.9318   40.3846   14.2475 C.ar        1 AAH       0.1925
      7 N7        -29.2391   40.1849   13.9109 N.2         1 AAH       0.3095
      8 O8        -29.5729   39.6013   12.9085 O.2         1 AAH       0.1751
      9 O9        -30.2288   40.5921   14.6654 O.2         1 AAH       0.1751
     10 C10       -23.7938   40.7223   15.5649 C.3         1 AAH       0.0060
     11 N11       -23.2840   39.4294   16.1519 N.4         1 AAH       0.2598
     12 C12       -22.5792   38.5423   15.1559 C.3         1 AAH       0.0389
     13 P13       -20.9270   38.6392   15.3293 P.3         1 AAH       0.1070
     14 O14       -20.4874   38.6611   16.7045 O.co2       1 AAH      -0.5587
     15 O15       -20.2547   37.5337   14.6806 O.co2       1 AAH      -0.5587
     16 O16       -20.4379   39.8352   14.6780 O.co2       1 AAH      -0.5587
     17 C17       -24.2784   38.7605   17.0680 C.3         1 AAH      -0.0289
     18 C18       -23.8488   37.4504   17.8043 C.3         1 AAH      -0.0110
     19 C19       -23.9660   36.1354   16.9610 C.3         1 AAH      -0.0366
     20 C20       -22.6444   35.3212   16.7843 C.3         1 AAH       0.0004
     21 C21       -22.4759   34.1069   17.6043 C.2         1 AAH       0.0348
     22 O22       -21.2935   33.4540   17.5670 O.co2       1 AAH      -0.5690
     23 O23       -23.4657   33.5721   18.3507 O.co2       1 AAH      -0.5690
     24 H1        -27.0741   39.3099   12.6237 H           1 AAH       0.0676
     25 H2        -24.8087   39.5798   13.2833 H           1 AAH       0.0576
     26 H3        -26.0412   41.8130   16.6396 H           1 AAH       0.0576
     27 H4        -28.3061   41.5774   15.9652 H           1 AAH       0.0676
     28 H5        -23.7123   41.4622   16.3662 H           1 AAH       0.0994
     29 H6        -23.1322   41.0865   14.7786 H           1 AAH       0.0994
     30 H7        -22.5459   39.7243   16.7948 H           1 AAH       0.2064
     31 H8        -22.8216   38.7997   14.1262 H           1 AAH       0.1014
     32 H9        -22.8567   37.4919   15.2656 H           1 AAH       0.1014
     33 H10       -25.2075   38.5603   16.5385 H           1 AAH       0.0815
     34 H11       -24.5166   39.4844   17.8515 H           1 AAH       0.0815
     35 H12       -24.4939   37.3345   18.6800 H           1 AAH       0.0318
     36 H13       -22.8388   37.5870   18.1902 H           1 AAH       0.0318
     37 H14       -24.3352   36.3856   15.9654 H           1 AAH       0.0285
     38 H15       -24.7447   35.4925   17.3939 H           1 AAH       0.0285
     39 H16       -21.7761   35.9577   16.9744 H           1 AAH       0.0430
     40 H17       -22.5704   35.0001   15.7414 H           1 AAH       0.0430
@<TRIPOS>BOND
     1     1     6  ar
     2     1     2  ar
     3     2     3  ar
     4     3    10   1
     5     3     4  ar
     6     4     5  ar
     7     5     6  ar
     8     6     7   1
     9     7     9   2
    10     7     8   2
    11    10    11   1
    12    11    17   1
    13    11    12   1
    14    12    13   1
    15    13    16  ar
    16    13    15  ar
    17    13    14  ar
    18    17    18   1
    19    18    19   1
    20    19    20   1
    21    20    21   1
    22    21    23  ar
    23    21    22  ar
    24     1    24   1
    25     2    25   1
    26     4    26   1
    27     5    27   1
    28    10    28   1
    29    10    29   1
    30    11    30   1
    31    12    31   1
    32    12    32   1
    33    17    33   1
    34    17    34   1
    35    18    35   1
    36    18    36   1
    37    19    37   1
    38    19    38   1
    39    20    39   1
    40    20    40   1
@<TRIPOS>SUBSTRUCTURE
     1  AAH      1

