@<TRIPOS>MOLECULE
1kel_ligand_011
    40    40
SMALL
GAST_HUCK
****
This file was generated by PARSER (from files_GN.cpp)

@<TRIPOS>ATOM
      1 C1        -22.9144   36.5104   17.6295 C.ar        1 AAH      -0.0251
      2 C2        -23.1442   37.8811   17.3854 C.ar        1 AAH      -0.0467
      3 C3        -22.4570   38.5658   16.3609 C.ar        1 AAH       0.0074
      4 C4        -21.5195   37.8375   15.5882 C.ar        1 AAH      -0.0467
      5 C5        -21.2703   36.4758   15.8498 C.ar        1 AAH      -0.0251
      6 C6        -21.9639   35.7797   16.8736 C.ar        1 AAH       0.1925
      7 N7        -21.7033   34.4611   17.1184 N.2         1 AAH       0.3095
      8 O8        -22.2752   33.8360   17.9775 O.2         1 AAH       0.1751
      9 O9        -20.8148   33.7832   16.4344 O.2         1 AAH       0.1751
     10 C10       -22.7072   40.0207   16.1070 C.3         1 AAH       0.0060
     11 N11       -24.0742   40.3918   15.5785 N.4         1 AAH       0.2598
     12 C12       -25.1848   40.2016   16.5862 C.3         1 AAH       0.0389
     13 P13       -26.7331   40.6986   16.1576 P.3         1 AAH       0.1070
     14 O14       -26.7683   41.5689   15.0036 O.co2       1 AAH      -0.5587
     15 O15       -27.5823   39.5580   15.9061 O.co2       1 AAH      -0.5587
     16 O16       -27.3280   41.4234   17.2572 O.co2       1 AAH      -0.5587
     17 C17       -24.3478   39.8639   14.1951 C.3         1 AAH      -0.0289
     18 C18       -24.6388   41.0054   13.1763 C.3         1 AAH      -0.0110
     19 C19       -25.8859   40.7311   12.2957 C.3         1 AAH      -0.0366
     20 C20       -26.1538   41.8234   11.2315 C.3         1 AAH       0.0004
     21 C21       -27.0137   41.3726   10.1164 C.2         1 AAH       0.0348
     22 O22       -27.4252   42.2701    9.1859 O.co2       1 AAH      -0.5690
     23 O23       -27.3076   40.0631    9.9214 O.co2       1 AAH      -0.5690
     24 H1        -23.4552   36.0522   18.3677 H           1 AAH       0.0676
     25 H2        -23.8180   38.3747   17.9711 H           1 AAH       0.0576
     26 H3        -21.0023   38.2936   14.8298 H           1 AAH       0.0576
     27 H4        -20.5825   35.9870   15.2712 H           1 AAH       0.0676
     28 H5        -21.9638   40.4067   15.4024 H           1 AAH       0.0994
     29 H6        -22.5124   40.5653   17.0357 H           1 AAH       0.0994
     30 H7        -24.0097   41.4076   15.4750 H           1 AAH       0.2064
     31 H8        -24.9154   40.7672   17.4829 H           1 AAH       0.1014
     32 H9        -25.2392   39.1453   16.8762 H           1 AAH       0.1014
     33 H10       -25.1905   39.1647   14.2192 H           1 AAH       0.0815
     34 H11       -23.5072   39.2697   13.8014 H           1 AAH       0.0815
     35 H12       -23.7653   41.1455   12.5192 H           1 AAH       0.0318
     36 H13       -24.7983   41.9528   13.6965 H           1 AAH       0.0318
     37 H14       -26.7595   40.6682   12.9613 H           1 AAH       0.0285
     38 H15       -25.7607   39.7617   11.7974 H           1 AAH       0.0285
     39 H16       -25.1987   42.1614   10.8113 H           1 AAH       0.0430
     40 H17       -26.6423   42.6819   11.7087 H           1 AAH       0.0430
@<TRIPOS>BOND
     1     1     6  ar
     2     1     2  ar
     3     2     3  ar
     4     3    10   1
     5     3     4  ar
     6     4     5  ar
     7     5     6  ar
     8     6     7   1
     9     7     9   2
    10     7     8   2
    11    10    11   1
    12    11    17   1
    13    11    12   1
    14    12    13   1
    15    13    16  ar
    16    13    15  ar
    17    13    14  ar
    18    17    18   1
    19    18    19   1
    20    19    20   1
    21    20    21   1
    22    21    23  ar
    23    21    22  ar
    24     1    24   1
    25     2    25   1
    26     4    26   1
    27     5    27   1
    28    10    28   1
    29    10    29   1
    30    11    30   1
    31    12    31   1
    32    12    32   1
    33    17    33   1
    34    17    34   1
    35    18    35   1
    36    18    36   1
    37    19    37   1
    38    19    38   1
    39    20    39   1
    40    20    40   1
@<TRIPOS>SUBSTRUCTURE
     1  AAH      1

