@<TRIPOS>MOLECULE
1kel_ligand_002
    40    40
SMALL
GAST_HUCK
****
This file was generated by PARSER (from files_GN.cpp)

@<TRIPOS>ATOM
      1 C1        -22.4795   36.3028   17.5769 C.ar        1 AAH      -0.0251
      2 C2        -22.5898   37.6724   17.2719 C.ar        1 AAH      -0.0467
      3 C3        -21.7617   38.2601   16.2903 C.ar        1 AAH       0.0074
      4 C4        -20.7722   37.4576   15.6797 C.ar        1 AAH      -0.0467
      5 C5        -20.6367   36.0979   16.0202 C.ar        1 AAH      -0.0251
      6 C6        -21.4957   35.4839   16.9653 C.ar        1 AAH       0.1925
      7 N7        -21.3709   34.1654   17.2788 N.2         1 AAH       0.3095
      8 O8        -22.1019   33.6124   18.0631 O.2         1 AAH       0.1751
      9 O9        -20.4710   33.3921   16.7248 O.2         1 AAH       0.1751
     10 C10       -21.9410   39.6889   15.9141 C.3         1 AAH       0.0060
     11 N11       -23.3563   40.0330   15.5382 N.4         1 AAH       0.2598
     12 C12       -24.0341   39.0106   14.6568 C.3         1 AAH       0.0389
     13 P13       -25.1792   38.0979   15.4660 P.3         1 AAH       0.1070
     14 O14       -25.5378   38.7400   16.7138 O.co2       1 AAH      -0.5587
     15 O15       -26.4063   37.8875   14.7282 O.co2       1 AAH      -0.5587
     16 O16       -24.6466   36.8188   15.8473 O.co2       1 AAH      -0.5587
     17 C17       -23.5217   41.4787   15.0985 C.3         1 AAH      -0.0289
     18 C18       -24.8797   42.0942   15.5609 C.3         1 AAH      -0.0110
     19 C19       -26.0216   42.0779   14.5055 C.3         1 AAH      -0.0366
     20 C20       -27.4311   41.8503   15.1098 C.3         1 AAH       0.0004
     21 C21       -27.5126   40.6190   15.9105 C.2         1 AAH       0.0348
     22 O22       -27.9172   39.4499   15.3526 O.co2       1 AAH      -0.5690
     23 O23       -26.9134   40.5558   17.1239 O.co2       1 AAH      -0.5690
     24 H1        -23.1333   35.9045   18.2542 H           1 AAH       0.0676
     25 H2        -23.3105   38.2247   17.7363 H           1 AAH       0.0576
     26 H3        -20.1539   37.8542   14.9702 H           1 AAH       0.0576
     27 H4        -19.9056   35.5515   15.5571 H           1 AAH       0.0676
     28 H5        -21.2731   39.9751   15.0966 H           1 AAH       0.0994
     29 H6        -21.6391   40.2714   16.7918 H           1 AAH       0.0994
     30 H7        -23.8403   40.0096   16.4368 H           1 AAH       0.2064
     31 H8        -23.3073   38.3279   14.2268 H           1 AAH       0.1014
     32 H9        -24.5114   39.4737   13.7896 H           1 AAH       0.1014
     33 H10       -23.3953   41.5916   14.0193 H           1 AAH       0.0815
     34 H11       -22.7432   42.1074   15.5535 H           1 AAH       0.0815
     35 H12       -24.7144   43.1435   15.8474 H           1 AAH       0.0318
     36 H13       -25.1845   41.5738   16.4760 H           1 AAH       0.0318
     37 H14       -25.8607   41.3014   13.7659 H           1 AAH       0.0285
     38 H15       -26.0144   43.0358   13.9797 H           1 AAH       0.0285
     39 H16       -28.1651   41.7904   14.2971 H           1 AAH       0.0430
     40 H17       -27.7109   42.7090   15.7285 H           1 AAH       0.0430
@<TRIPOS>BOND
     1     1     6  ar
     2     1     2  ar
     3     2     3  ar
     4     3    10   1
     5     3     4  ar
     6     4     5  ar
     7     5     6  ar
     8     6     7   1
     9     7     9   2
    10     7     8   2
    11    10    11   1
    12    11    17   1
    13    11    12   1
    14    12    13   1
    15    13    16  ar
    16    13    15  ar
    17    13    14  ar
    18    17    18   1
    19    18    19   1
    20    19    20   1
    21    20    21   1
    22    21    23  ar
    23    21    22  ar
    24     1    24   1
    25     2    25   1
    26     4    26   1
    27     5    27   1
    28    10    28   1
    29    10    29   1
    30    11    30   1
    31    12    31   1
    32    12    32   1
    33    17    33   1
    34    17    34   1
    35    18    35   1
    36    18    36   1
    37    19    37   1
    38    19    38   1
    39    20    39   1
    40    20    40   1
@<TRIPOS>SUBSTRUCTURE
     1  AAH      1

