@<TRIPOS>MOLECULE
1lbk_ligand_069
    36    35
SMALL
GAST_HUCK
****
This file was generated by PARSER (from files_GN.cpp)

@<TRIPOS>ATOM
      1 N1          9.1161   37.4359    4.8581 N.4         1 GSH       0.2328
      2 CA1         7.8781   37.2257    4.0958 C.3         1 GSH       0.0304
      3 C1          7.8186   35.7963    3.7232 C.2         1 GSH       0.0846
      4 O11         6.9931   34.9648    4.3969 O.co2       1 GSH      -0.5643
      5 O12         8.7036   35.2560    2.8581 O.co2       1 GSH      -0.5643
      6 CB1         7.7471   38.2164    2.8770 C.3         1 GSH       0.0193
      7 CG1         6.4624   39.1125    2.8736 C.3         1 GSH       0.0441
      8 CD1         5.9210   39.5651    1.5783 C.2         1 GSH       0.1785
      9 OE1         6.6078   40.2923    0.8820 O.2         1 GSH      -0.3969
     10 N2          4.6942   39.2553    1.1859 N.am        1 GSH      -0.2648
     11 CA2         3.9887   39.5677   -0.0408 C.3         1 GSH       0.1395
     12 C2          4.7521   39.4330   -1.2874 C.2         1 GSH       0.2039
     13 O2          4.5050   40.1644   -2.2388 O.2         1 GSH      -0.3944
     14 CB2         3.1811   40.9007    0.1359 C.3         1 GSH       0.0311
     15 SG2         1.5479   40.8399   -0.6458 S.3         1 GSH      -0.1735
     16 N3          5.6133   38.4303   -1.4289 N.am        1 GSH      -0.2722
     17 CA3         6.3916   38.0945   -2.5741 C.3         1 GSH       0.0833
     18 C3          7.4655   39.0674   -2.8367 C.2         1 GSH       0.0570
     19 O31         8.5336   39.1309   -2.0100 O.co2       1 GSH      -0.5669
     20 O32         7.2653   40.0766   -3.7084 O.co2       1 GSH      -0.5669
     21 H1          9.0789   38.3601    5.2901 H           1 GSH       0.2010
     22 H2          9.9236   37.3731    4.2368 H           1 GSH       0.2010
     23 H3          9.1940   36.7323    5.5926 H           1 GSH       0.2010
     24 H4          7.0730   37.4082    4.8095 H           1 GSH       0.1026
     25 H5          7.7832   37.6456    1.9482 H           1 GSH       0.0363
     26 H6          8.6188   38.8705    2.8635 H           1 GSH       0.0363
     27 H7          6.6895   40.0000    3.4539 H           1 GSH       0.0505
     28 H8          5.6718   38.5843    3.4107 H           1 GSH       0.0505
     29 H9          4.1769   38.7223    1.8073 H           1 GSH       0.1883
     30 H10         3.2517   38.7659   -0.0914 H           1 GSH       0.0808
     31 H11         3.7300   41.7426   -0.2974 H           1 GSH       0.0422
     32 H12         3.0164   41.1197    1.1961 H           1 GSH       0.0422
     33 H13         1.1723   42.0423   -0.1287 H           1 GSH       0.1019
     34 H14         5.7264   37.8609   -0.6660 H           1 GSH       0.1873
     35 H15         5.7518   37.9761   -3.4557 H           1 GSH       0.0689
     36 H16         6.8665   37.1262   -2.3876 H           1 GSH       0.0689
@<TRIPOS>BOND
     1     1     2   1
     2     2     3   1
     3     2     6   1
     4     3     4  ar
     5     3     5  ar
     6     6     7   1
     7     7     8   1
     8     8     9   2
     9     8    10  am
    10    10    11   1
    11    11    12   1
    12    11    14   1
    13    12    13   2
    14    12    16  am
    15    14    15   1
    16    16    17   1
    17    17    18   1
    18    18    19  ar
    19    18    20  ar
    20     1    21   1
    21     1    22   1
    22     1    23   1
    23     2    24   1
    24     6    25   1
    25     6    26   1
    26     7    27   1
    27     7    28   1
    28    10    29   1
    29    11    30   1
    30    14    31   1
    31    14    32   1
    32    15    33   1
    33    16    34   1
    34    17    35   1
    35    17    36   1
@<TRIPOS>SUBSTRUCTURE
     1  GSH      2

