@<TRIPOS>MOLECULE
1lbk_ligand_065
    36    35
SMALL
GAST_HUCK
****
This file was generated by PARSER (from files_GN.cpp)

@<TRIPOS>ATOM
      1 N1          2.3958   35.8842    0.6880 N.4         1 GSH       0.2328
      2 CA1         1.6136   35.6350   -0.5373 C.3         1 GSH       0.0304
      3 C1          2.4898   35.8513   -1.7170 C.2         1 GSH       0.0846
      4 O11         3.6511   35.1638   -1.8059 O.co2       1 GSH      -0.5643
      5 O12         2.1190   36.5827   -2.7964 O.co2       1 GSH      -0.5643
      6 CB1         0.2359   36.3770   -0.5114 C.3         1 GSH       0.0193
      7 CG1         0.1306   37.8790   -0.8945 C.3         1 GSH       0.0441
      8 CD1         1.2358   38.7210   -0.4854 C.2         1 GSH       0.1785
      9 OE1         1.4795   38.8357    0.7051 O.2         1 GSH      -0.3969
     10 N2          1.9671   39.3349   -1.4113 N.am        1 GSH      -0.2648
     11 CA2         3.1612   40.1228   -1.3298 C.3         1 GSH       0.1395
     12 C2          4.0882   39.5987   -2.3301 C.2         1 GSH       0.2039
     13 O2          4.2545   40.2274   -3.3688 O.2         1 GSH      -0.3944
     14 CB2         3.8052   40.2809    0.0765 C.3         1 GSH       0.0311
     15 SG2         5.4464   41.0310    0.0257 S.3         1 GSH      -0.1735
     16 N3          4.7608   38.4740   -2.0978 N.am        1 GSH      -0.2722
     17 CA3         5.7683   37.8946   -2.9300 C.3         1 GSH       0.0833
     18 C3          7.0260   38.6612   -2.9162 C.2         1 GSH       0.0570
     19 O31         7.1414   39.8208   -3.6015 O.co2       1 GSH      -0.5669
     20 O32         8.1450   38.1605   -2.3470 O.co2       1 GSH      -0.5669
     21 H1          1.7910   35.8310    1.5167 H           1 GSH       0.2010
     22 H2          2.8476   36.8023    0.6597 H           1 GSH       0.2010
     23 H3          3.1237   35.1696    0.7691 H           1 GSH       0.2010
     24 H4          1.3860   34.5641   -0.5275 H           1 GSH       0.1026
     25 H5         -0.1482   36.2852    0.5032 H           1 GSH       0.0363
     26 H6         -0.4629   35.8249   -1.1526 H           1 GSH       0.0363
     27 H7         -0.7794   38.2951   -0.4447 H           1 GSH       0.0505
     28 H8          0.0005   37.9306   -1.9746 H           1 GSH       0.0505
     29 H9          1.6439   39.2215   -2.3096 H           1 GSH       0.1883
     30 H10         2.8478   41.1279   -1.6340 H           1 GSH       0.0808
     31 H11         3.8898   39.2986    0.5597 H           1 GSH       0.0422
     32 H12         3.1688   40.9299    0.6986 H           1 GSH       0.0422
     33 H13         5.7517   40.6174    1.2860 H           1 GSH       0.1019
     34 H14         4.5594   38.0109   -1.2635 H           1 GSH       0.1873
     35 H15         5.4079   37.7595   -3.9592 H           1 GSH       0.0689
     36 H16         5.9771   36.9060   -2.5234 H           1 GSH       0.0689
@<TRIPOS>BOND
     1     1     2   1
     2     2     3   1
     3     2     6   1
     4     3     4  ar
     5     3     5  ar
     6     6     7   1
     7     7     8   1
     8     8     9   2
     9     8    10  am
    10    10    11   1
    11    11    12   1
    12    11    14   1
    13    12    13   2
    14    12    16  am
    15    14    15   1
    16    16    17   1
    17    17    18   1
    18    18    19  ar
    19    18    20  ar
    20     1    21   1
    21     1    22   1
    22     1    23   1
    23     2    24   1
    24     6    25   1
    25     6    26   1
    26     7    27   1
    27     7    28   1
    28    10    29   1
    29    11    30   1
    30    14    31   1
    31    14    32   1
    32    15    33   1
    33    16    34   1
    34    17    35   1
    35    17    36   1
@<TRIPOS>SUBSTRUCTURE
     1  GSH      2

