@<TRIPOS>MOLECULE
1lbk_ligand_064
    36    35
SMALL
GAST_HUCK
****
This file was generated by PARSER (from files_GN.cpp)

@<TRIPOS>ATOM
      1 N1         -2.2221   44.0016    0.5170 N.4         1 GSH       0.2328
      2 CA1        -1.1825   43.0715    0.0884 C.3         1 GSH       0.0304
      3 C1         -0.4084   42.7865    1.2856 C.2         1 GSH       0.0846
      4 O11        -0.3857   41.5061    1.7897 O.co2       1 GSH      -0.5643
      5 O12         0.0395   43.7626    2.1048 O.co2       1 GSH      -0.5643
      6 CB1        -0.3835   43.6504   -1.1207 C.3         1 GSH       0.0193
      7 CG1         0.3928   42.6533   -2.0232 C.3         1 GSH       0.0441
      8 CD1         1.7470   42.2947   -1.6035 C.2         1 GSH       0.1785
      9 OE1         2.5214   43.2294   -1.3595 O.2         1 GSH      -0.3969
     10 N2          2.2012   41.0495   -1.6574 N.am        1 GSH      -0.2648
     11 CA2         3.5166   40.5925   -1.2900 C.3         1 GSH       0.1395
     12 C2          4.0272   39.6104   -2.2590 C.2         1 GSH       0.2039
     13 O2          3.7453   39.7653   -3.4472 O.2         1 GSH      -0.3944
     14 CB2         3.5630   40.0665    0.1696 C.3         1 GSH       0.0311
     15 SG2         2.4703   40.8849    1.3436 S.3         1 GSH      -0.1735
     16 N3          4.8420   38.6145   -1.9065 N.am        1 GSH      -0.2722
     17 CA3         5.3591   37.5863   -2.7412 C.3         1 GSH       0.0833
     18 C3          6.5241   38.0015   -3.5299 C.2         1 GSH       0.0570
     19 O31         6.5573   39.2110   -4.1346 O.co2       1 GSH      -0.5669
     20 O32         7.3371   37.0406   -4.0439 O.co2       1 GSH      -0.5669
     21 H1         -2.7582   44.3351   -0.2860 H           1 GSH       0.2010
     22 H2         -1.8157   44.8070    0.9837 H           1 GSH       0.2010
     23 H3         -2.8623   43.5328    1.1583 H           1 GSH       0.2010
     24 H4         -1.6945   42.1618   -0.2501 H           1 GSH       0.1026
     25 H5          0.2741   44.4516   -0.7684 H           1 GSH       0.0363
     26 H6         -1.1129   44.1285   -1.7770 H           1 GSH       0.0363
     27 H7          0.4981   43.1021   -3.0139 H           1 GSH       0.0505
     28 H8         -0.1992   41.7405   -2.1622 H           1 GSH       0.0505
     29 H9          1.5490   40.3540   -1.8914 H           1 GSH       0.1883
     30 H10         4.2188   41.4280   -1.3462 H           1 GSH       0.0808
     31 H11         4.5861   40.1634    0.5736 H           1 GSH       0.0422
     32 H12         3.2900   39.0034    0.2169 H           1 GSH       0.0422
     33 H13         1.3846   40.6269    0.5629 H           1 GSH       0.1019
     34 H14         5.0366   38.5255   -0.9611 H           1 GSH       0.1873
     35 H15         4.5846   37.1880   -3.3902 H           1 GSH       0.0689
     36 H16         5.6781   36.7685   -2.0763 H           1 GSH       0.0689
@<TRIPOS>BOND
     1     1     2   1
     2     2     3   1
     3     2     6   1
     4     3     4  ar
     5     3     5  ar
     6     6     7   1
     7     7     8   1
     8     8     9   2
     9     8    10  am
    10    10    11   1
    11    11    12   1
    12    11    14   1
    13    12    13   2
    14    12    16  am
    15    14    15   1
    16    16    17   1
    17    17    18   1
    18    18    19  ar
    19    18    20  ar
    20     1    21   1
    21     1    22   1
    22     1    23   1
    23     2    24   1
    24     6    25   1
    25     6    26   1
    26     7    27   1
    27     7    28   1
    28    10    29   1
    29    11    30   1
    30    14    31   1
    31    14    32   1
    32    15    33   1
    33    16    34   1
    34    17    35   1
    35    17    36   1
@<TRIPOS>SUBSTRUCTURE
     1  GSH      2

