@<TRIPOS>MOLECULE
1lbk_ligand_040
    36    35
SMALL
GAST_HUCK
****
This file was generated by PARSER (from files_GN.cpp)

@<TRIPOS>ATOM
      1 N1          4.7661   39.8646   -0.7203 N.4         1 GSH       0.2328
      2 CA1         5.1856   39.2598   -1.9946 C.3         1 GSH       0.0304
      3 C1          5.7147   40.2969   -2.9021 C.2         1 GSH       0.0846
      4 O11         5.0093   41.4142   -3.1781 O.co2       1 GSH      -0.5643
      5 O12         6.9002   40.1030   -3.5320 O.co2       1 GSH      -0.5643
      6 CB1         4.0178   38.4570   -2.6535 C.3         1 GSH       0.0193
      7 CG1         3.9753   36.9368   -2.3238 C.3         1 GSH       0.0441
      8 CD1         5.2382   36.2433   -2.5750 C.2         1 GSH       0.1785
      9 OE1         5.7912   36.3984   -3.6605 O.2         1 GSH      -0.3969
     10 N2          5.7947   35.5017   -1.6237 N.am        1 GSH      -0.2648
     11 CA2         7.1494   35.0050   -1.5047 C.3         1 GSH       0.1395
     12 C2          7.7417   34.4228   -2.7200 C.2         1 GSH       0.2039
     13 O2          8.0073   33.2255   -2.7796 O.2         1 GSH      -0.3944
     14 CB2         7.2219   34.0796   -0.2462 C.3         1 GSH       0.0311
     15 SG2         6.1819   32.5928   -0.3373 S.3         1 GSH      -0.1735
     16 N3          8.0596   35.2201   -3.7352 N.am        1 GSH      -0.2722
     17 CA3         8.6480   34.8370   -4.9813 C.3         1 GSH       0.0833
     18 C3          7.8777   33.8133   -5.7078 C.2         1 GSH       0.0570
     19 O31         8.4420   32.6168   -6.0145 O.co2       1 GSH      -0.5669
     20 O32         6.5586   33.9890   -5.9654 O.co2       1 GSH      -0.5669
     21 H1          4.4913   39.1171   -0.0874 H           1 GSH       0.2010
     22 H2          3.9762   40.4968   -0.8605 H           1 GSH       0.2010
     23 H3          5.5467   40.3783   -0.3123 H           1 GSH       0.2010
     24 H4          6.0124   38.5820   -1.7547 H           1 GSH       0.1026
     25 H5          4.0628   38.5484   -3.7445 H           1 GSH       0.0363
     26 H6          3.0699   38.8975   -2.3502 H           1 GSH       0.0363
     27 H7          3.2134   36.4597   -2.9447 H           1 GSH       0.0505
     28 H8          3.6710   36.8087   -1.2787 H           1 GSH       0.0505
     29 H9          5.2538   35.3798   -0.8238 H           1 GSH       0.1883
     30 H10         7.7620   35.8778   -1.2497 H           1 GSH       0.0808
     31 H11         6.9337   34.6452    0.6413 H           1 GSH       0.0422
     32 H12         8.2514   33.7524   -0.1059 H           1 GSH       0.0422
     33 H13         5.0103   33.2716   -0.1125 H           1 GSH       0.1019
     34 H14         7.8802   36.1618   -3.6226 H           1 GSH       0.1873
     35 H15         9.6784   34.4952   -4.8220 H           1 GSH       0.0689
     36 H16         8.6955   35.7258   -5.6150 H           1 GSH       0.0689
@<TRIPOS>BOND
     1     1     2   1
     2     2     3   1
     3     2     6   1
     4     3     4  ar
     5     3     5  ar
     6     6     7   1
     7     7     8   1
     8     8     9   2
     9     8    10  am
    10    10    11   1
    11    11    12   1
    12    11    14   1
    13    12    13   2
    14    12    16  am
    15    14    15   1
    16    16    17   1
    17    17    18   1
    18    18    19  ar
    19    18    20  ar
    20     1    21   1
    21     1    22   1
    22     1    23   1
    23     2    24   1
    24     6    25   1
    25     6    26   1
    26     7    27   1
    27     7    28   1
    28    10    29   1
    29    11    30   1
    30    14    31   1
    31    14    32   1
    32    15    33   1
    33    16    34   1
    34    17    35   1
    35    17    36   1
@<TRIPOS>SUBSTRUCTURE
     1  GSH      2

