@<TRIPOS>MOLECULE
1lbk_ligand_026
    36    35
SMALL
GAST_HUCK
****
This file was generated by PARSER (from files_GN.cpp)

@<TRIPOS>ATOM
      1 N1          6.4158   38.2657   -1.6133 N.4         1 GSH       0.2328
      2 CA1         5.4338   38.8100   -2.5633 C.3         1 GSH       0.0304
      3 C1          6.0370   39.9168   -3.3385 C.2         1 GSH       0.0846
      4 O11         5.4196   41.1062   -3.5235 O.co2       1 GSH      -0.5643
      5 O12         7.2048   39.7133   -3.9892 O.co2       1 GSH      -0.5643
      6 CB1         4.1171   39.2114   -1.8371 C.3         1 GSH       0.0193
      7 CG1         4.2819   40.2351   -0.6706 C.3         1 GSH       0.0441
      8 CD1         3.0470   40.9497   -0.4077 C.2         1 GSH       0.1785
      9 OE1         3.0141   42.1646   -0.5469 O.2         1 GSH      -0.3969
     10 N2          1.9394   40.2688   -0.1485 N.am        1 GSH      -0.2648
     11 CA2         0.5969   40.7821   -0.0807 C.3         1 GSH       0.1395
     12 C2          0.1047   41.3172   -1.3472 C.2         1 GSH       0.2039
     13 O2          0.8903   41.7185   -2.1988 O.2         1 GSH      -0.3944
     14 CB2         0.3666   41.6986    1.1738 C.3         1 GSH       0.0311
     15 SG2        -0.0295   43.4419    0.8919 S.3         1 GSH      -0.1735
     16 N3         -1.2116   41.3879   -1.5167 N.am        1 GSH      -0.2722
     17 CA3        -1.9727   41.9399   -2.5894 C.3         1 GSH       0.0833
     18 C3         -1.3183   42.9221   -3.4782 C.2         1 GSH       0.0570
     19 O31        -1.3879   42.7856   -4.8240 O.co2       1 GSH      -0.5669
     20 O32        -0.8113   44.0625   -2.9558 O.co2       1 GSH      -0.5669
     21 H1          5.9530   37.6222   -0.9706 H           1 GSH       0.2010
     22 H2          6.8170   39.0268   -1.0677 H           1 GSH       0.2010
     23 H3          7.1635   37.7828   -2.1180 H           1 GSH       0.2010
     24 H4          5.1954   38.0102   -3.2712 H           1 GSH       0.1026
     25 H5          3.6487   38.3042   -1.4400 H           1 GSH       0.0363
     26 H6          3.4314   39.6070   -2.5978 H           1 GSH       0.0363
     27 H7          5.0732   40.9464   -0.9221 H           1 GSH       0.0505
     28 H8          4.5956   39.7140    0.2379 H           1 GSH       0.0505
     29 H9          2.0367   39.3048   -0.0645 H           1 GSH       0.1883
     30 H10         0.0174   39.8695    0.0958 H           1 GSH       0.0808
     31 H11         1.2382   41.6700    1.8332 H           1 GSH       0.0422
     32 H12        -0.4728   41.3013    1.7467 H           1 GSH       0.0422
     33 H13         1.2240   43.7632    0.4840 H           1 GSH       0.1019
     34 H14        -1.7401   41.0186   -0.7909 H           1 GSH       0.1873
     35 H15        -2.8154   42.4431   -2.1190 H           1 GSH       0.0689
     36 H16        -2.3861   41.1154   -3.1739 H           1 GSH       0.0689
@<TRIPOS>BOND
     1     1     2   1
     2     2     3   1
     3     2     6   1
     4     3     4  ar
     5     3     5  ar
     6     6     7   1
     7     7     8   1
     8     8     9   2
     9     8    10  am
    10    10    11   1
    11    11    12   1
    12    11    14   1
    13    12    13   2
    14    12    16  am
    15    14    15   1
    16    16    17   1
    17    17    18   1
    18    18    19  ar
    19    18    20  ar
    20     1    21   1
    21     1    22   1
    22     1    23   1
    23     2    24   1
    24     6    25   1
    25     6    26   1
    26     7    27   1
    27     7    28   1
    28    10    29   1
    29    11    30   1
    30    14    31   1
    31    14    32   1
    32    15    33   1
    33    16    34   1
    34    17    35   1
    35    17    36   1
@<TRIPOS>SUBSTRUCTURE
     1  GSH      2

