@<TRIPOS>MOLECULE
1lbk_ligand_029
    36    35
SMALL
GAST_HUCK
****
This file was generated by PARSER (from files_GN.cpp)

@<TRIPOS>ATOM
      1 N1         10.0098   35.8111   -5.4370 N.4         1 GSH       0.2328
      2 CA1         9.6895   35.3623   -4.0736 C.3         1 GSH       0.0304
      3 C1          8.5886   34.3783   -4.1221 C.2         1 GSH       0.0846
      4 O11         8.7053   33.1782   -3.5016 O.co2       1 GSH      -0.5643
      5 O12         7.4999   34.5734   -4.9162 O.co2       1 GSH      -0.5643
      6 CB1         9.4819   36.6076   -3.1259 C.3         1 GSH       0.0193
      7 CG1         8.2274   36.6652   -2.1982 C.3         1 GSH       0.0441
      8 CD1         6.9605   36.9389   -2.8395 C.2         1 GSH       0.1785
      9 OE1         6.8760   37.0767   -4.0625 O.2         1 GSH      -0.3969
     10 N2          5.8714   37.1117   -2.0795 N.am        1 GSH      -0.2648
     11 CA2         4.5253   37.3605   -2.5261 C.3         1 GSH       0.1395
     12 C2          4.2768   38.8044   -2.4929 C.2         1 GSH       0.2039
     13 O2          3.8486   39.3541   -3.4992 O.2         1 GSH      -0.3944
     14 CB2         3.5040   36.4706   -1.7260 C.3         1 GSH       0.0311
     15 SG2         2.0894   37.2649   -0.9204 S.3         1 GSH      -0.1735
     16 N3          4.4983   39.4919   -1.3840 N.am        1 GSH      -0.2722
     17 CA3         4.2933   40.8911   -1.1938 C.3         1 GSH       0.0833
     18 C3          4.9489   41.7606   -2.1922 C.2         1 GSH       0.0570
     19 O31         4.9015   43.1120   -2.0439 O.co2       1 GSH      -0.5669
     20 O32         5.6450   41.2841   -3.2403 O.co2       1 GSH      -0.5669
     21 H1         10.8325   36.4122   -5.4141 H           1 GSH       0.2010
     22 H2          9.2228   36.3317   -5.8213 H           1 GSH       0.2010
     23 H3         10.1971   35.0027   -6.0252 H           1 GSH       0.2010
     24 H4         10.5789   34.8296   -3.7187 H           1 GSH       0.1026
     25 H5          9.4983   37.5336   -3.7154 H           1 GSH       0.0363
     26 H6         10.3596   36.6733   -2.4755 H           1 GSH       0.0363
     27 H7          8.3988   37.4578   -1.4646 H           1 GSH       0.0505
     28 H8          8.1531   35.7258   -1.6465 H           1 GSH       0.0505
     29 H9          6.0151   37.1073   -1.1214 H           1 GSH       0.1883
     30 H10         4.4378   37.0516   -3.5695 H           1 GSH       0.0808
     31 H11         4.0201   35.8902   -0.9589 H           1 GSH       0.0422
     32 H12         3.0721   35.7352   -2.4156 H           1 GSH       0.0422
     33 H13         2.8719   37.7565    0.0766 H           1 GSH       0.1019
     34 H14         4.7866   38.9839   -0.5961 H           1 GSH       0.1873
     35 H15         4.6838   41.1540   -0.2062 H           1 GSH       0.0689
     36 H16         3.2174   41.0992   -1.1946 H           1 GSH       0.0689
@<TRIPOS>BOND
     1     1     2   1
     2     2     3   1
     3     2     6   1
     4     3     4  ar
     5     3     5  ar
     6     6     7   1
     7     7     8   1
     8     8     9   2
     9     8    10  am
    10    10    11   1
    11    11    12   1
    12    11    14   1
    13    12    13   2
    14    12    16  am
    15    14    15   1
    16    16    17   1
    17    17    18   1
    18    18    19  ar
    19    18    20  ar
    20     1    21   1
    21     1    22   1
    22     1    23   1
    23     2    24   1
    24     6    25   1
    25     6    26   1
    26     7    27   1
    27     7    28   1
    28    10    29   1
    29    11    30   1
    30    14    31   1
    31    14    32   1
    32    15    33   1
    33    16    34   1
    34    17    35   1
    35    17    36   1
@<TRIPOS>SUBSTRUCTURE
     1  GSH      2

