@<TRIPOS>MOLECULE
1lbk_ligand_005
    36    35
SMALL
GAST_HUCK
****
This file was generated by PARSER (from files_GN.cpp)

@<TRIPOS>ATOM
      1 N1         -2.8020   36.4744   -0.2439 N.4         1 GSH       0.2328
      2 CA1        -1.7966   36.0742   -1.2407 C.3         1 GSH       0.0304
      3 C1         -1.1307   34.8150   -0.8150 C.2         1 GSH       0.0846
      4 O11         0.2226   34.6782   -0.7897 O.co2       1 GSH      -0.5643
      5 O12        -1.8853   33.7054   -0.6042 O.co2       1 GSH      -0.5643
      6 CB1        -0.8659   37.2793   -1.5731 C.3         1 GSH       0.0193
      7 CG1         0.4073   37.4569   -0.6743 C.3         1 GSH       0.0441
      8 CD1         1.1164   38.7092   -0.9010 C.2         1 GSH       0.1785
      9 OE1         0.4584   39.7051   -1.1958 O.2         1 GSH      -0.3969
     10 N2          2.4145   38.8196   -0.6091 N.am        1 GSH      -0.2648
     11 CA2         3.2418   39.9967   -0.7714 C.3         1 GSH       0.1395
     12 C2          2.4910   41.2353   -0.5089 C.2         1 GSH       0.2039
     13 O2          2.3199   42.0525   -1.4090 O.2         1 GSH      -0.3944
     14 CB2         3.9533   39.8708   -2.1542 C.3         1 GSH       0.0311
     15 SG2         4.9067   41.3167   -2.6683 S.3         1 GSH      -0.1735
     16 N3          1.8317   41.3460    0.6334 N.am        1 GSH      -0.2722
     17 CA3         0.7064   42.1924    0.9090 C.3         1 GSH       0.0833
     18 C3          0.9411   43.0076    2.0995 C.2         1 GSH       0.0570
     19 O31         1.1979   42.4304    3.2925 O.co2       1 GSH      -0.5669
     20 O32         1.0178   44.3501    1.9888 O.co2       1 GSH      -0.5669
     21 H1         -3.4089   37.1898   -0.6596 H           1 GSH       0.2010
     22 H2         -2.3614   36.8469    0.6042 H           1 GSH       0.2010
     23 H3         -3.3795   35.6685    0.0139 H           1 GSH       0.2010
     24 H4         -2.3581   35.8367   -2.1530 H           1 GSH       0.1026
     25 H5         -1.4887   38.1792   -1.5016 H           1 GSH       0.0363
     26 H6         -0.5476   37.1921   -2.6171 H           1 GSH       0.0363
     27 H7          1.0881   36.6110   -0.8813 H           1 GSH       0.0505
     28 H8          0.1148   37.4126    0.3834 H           1 GSH       0.0505
     29 H9          2.8862   38.0160   -0.3089 H           1 GSH       0.1883
     30 H10         4.0216   39.9409   -0.0033 H           1 GSH       0.0808
     31 H11         3.2136   39.6729   -2.9306 H           1 GSH       0.0422
     32 H12         4.6411   39.0172   -2.1343 H           1 GSH       0.0422
     33 H13         6.0811   40.8311   -2.1582 H           1 GSH       0.1019
     34 H14         2.0342   40.6809    1.3115 H           1 GSH       0.1873
     35 H15        -0.1549   41.5533    1.1013 H           1 GSH       0.0689
     36 H16         0.4534   42.8382    0.0643 H           1 GSH       0.0689
@<TRIPOS>BOND
     1     1     2   1
     2     2     3   1
     3     2     6   1
     4     3     4  ar
     5     3     5  ar
     6     6     7   1
     7     7     8   1
     8     8     9   2
     9     8    10  am
    10    10    11   1
    11    11    12   1
    12    11    14   1
    13    12    13   2
    14    12    16  am
    15    14    15   1
    16    16    17   1
    17    17    18   1
    18    18    19  ar
    19    18    20  ar
    20     1    21   1
    21     1    22   1
    22     1    23   1
    23     2    24   1
    24     6    25   1
    25     6    26   1
    26     7    27   1
    27     7    28   1
    28    10    29   1
    29    11    30   1
    30    14    31   1
    31    14    32   1
    32    15    33   1
    33    16    34   1
    34    17    35   1
    35    17    36   1
@<TRIPOS>SUBSTRUCTURE
     1  GSH      2

