@<TRIPOS>MOLECULE
1lbk_ligand_039
    36    35
SMALL
GAST_HUCK
****
This file was generated by PARSER (from files_GN.cpp)

@<TRIPOS>ATOM
      1 N1          4.1348   39.5501   -1.2724 N.4         1 GSH       0.2328
      2 CA1         5.2451   39.1483   -2.1523 C.3         1 GSH       0.0304
      3 C1          5.7164   40.2733   -2.9826 C.2         1 GSH       0.0846
      4 O11         5.0537   41.4488   -3.0769 O.co2       1 GSH      -0.5643
      5 O12         6.9275   40.1690   -3.5740 O.co2       1 GSH      -0.5643
      6 CB1         4.8340   37.9267   -3.0349 C.3         1 GSH       0.0193
      7 CG1         5.2232   36.5373   -2.4493 C.3         1 GSH       0.0441
      8 CD1         6.6378   36.3329   -2.1458 C.2         1 GSH       0.1785
      9 OE1         6.9204   35.5981   -1.2044 O.2         1 GSH      -0.3969
     10 N2          7.5903   36.9141   -2.8714 N.am        1 GSH      -0.2648
     11 CA2         9.0142   36.8685   -2.6668 C.3         1 GSH       0.1395
     12 C2          9.4344   38.1187   -2.0333 C.2         1 GSH       0.2039
     13 O2          9.0149   39.1784   -2.4817 O.2         1 GSH      -0.3944
     14 CB2         9.7465   36.6758   -4.0265 C.3         1 GSH       0.0311
     15 SG2         9.2341   35.1820   -4.9081 S.3         1 GSH      -0.1735
     16 N3         10.3071   38.0996   -1.0272 N.am        1 GSH      -0.2722
     17 CA3        10.7988   39.2345   -0.3025 C.3         1 GSH       0.0833
     18 C3         12.2298   39.4527   -0.5985 C.2         1 GSH       0.0570
     19 O31        13.1129   39.7764    0.3759 O.co2       1 GSH      -0.5669
     20 O32        12.6283   39.5416   -1.8867 O.co2       1 GSH      -0.5669
     21 H1          3.9645   38.7971   -0.6043 H           1 GSH       0.2010
     22 H2          3.2879   39.7208   -1.8224 H           1 GSH       0.2010
     23 H3          4.3856   40.4016   -0.7632 H           1 GSH       0.2010
     24 H4          6.0871   38.8777   -1.5056 H           1 GSH       0.1026
     25 H5          5.2801   37.9957   -4.0296 H           1 GSH       0.0363
     26 H6          3.7537   37.9402   -3.1915 H           1 GSH       0.0363
     27 H7          4.9312   35.7686   -3.1736 H           1 GSH       0.0505
     28 H8          4.6272   36.3704   -1.5406 H           1 GSH       0.0505
     29 H9          7.2937   37.4849   -3.5973 H           1 GSH       0.1883
     30 H10         9.2768   36.0210   -2.0180 H           1 GSH       0.0808
     31 H11        10.8275   36.6155   -3.8563 H           1 GSH       0.0422
     32 H12         9.5509   37.5292   -4.6780 H           1 GSH       0.0422
     33 H13         9.8479   34.3504   -4.0242 H           1 GSH       0.1019
     34 H14        10.6527   37.2304   -0.7659 H           1 GSH       0.1873
     35 H15        10.6680   39.0412    0.7636 H           1 GSH       0.0689
     36 H16        10.2491   40.1514   -0.5453 H           1 GSH       0.0689
@<TRIPOS>BOND
     1     1     2   1
     2     2     3   1
     3     2     6   1
     4     3     4  ar
     5     3     5  ar
     6     6     7   1
     7     7     8   1
     8     8     9   2
     9     8    10  am
    10    10    11   1
    11    11    12   1
    12    11    14   1
    13    12    13   2
    14    12    16  am
    15    14    15   1
    16    16    17   1
    17    17    18   1
    18    18    19  ar
    19    18    20  ar
    20     1    21   1
    21     1    22   1
    22     1    23   1
    23     2    24   1
    24     6    25   1
    25     6    26   1
    26     7    27   1
    27     7    28   1
    28    10    29   1
    29    11    30   1
    30    14    31   1
    31    14    32   1
    32    15    33   1
    33    16    34   1
    34    17    35   1
    35    17    36   1
@<TRIPOS>SUBSTRUCTURE
     1  GSH      2

