@<TRIPOS>MOLECULE
1lbk_ligand_019
    36    35
SMALL
GAST_HUCK
****
This file was generated by PARSER (from files_GN.cpp)

@<TRIPOS>ATOM
      1 N1          1.9788   32.6593    0.0321 N.4         1 GSH       0.2328
      2 CA1         2.9464   33.6463   -0.4830 C.3         1 GSH       0.0304
      3 C1          4.3119   33.0796   -0.3351 C.2         1 GSH       0.0846
      4 O11         5.0832   32.8475   -1.4254 O.co2       1 GSH      -0.5643
      5 O12         4.8479   32.8275    0.8862 O.co2       1 GSH      -0.5643
      6 CB1         2.8163   35.0282    0.2298 C.3         1 GSH       0.0193
      7 CG1         1.9224   36.0510   -0.5382 C.3         1 GSH       0.0441
      8 CD1         1.9710   37.3916    0.0243 C.2         1 GSH       0.1785
      9 OE1         2.1267   37.4945    1.2385 O.2         1 GSH      -0.3969
     10 N2          1.8344   38.4546   -0.7604 N.am        1 GSH      -0.2648
     11 CA2         1.9115   39.8374   -0.3853 C.3         1 GSH       0.1395
     12 C2          1.0311   40.6136   -1.2559 C.2         1 GSH       0.2039
     13 O2          1.3716   40.7978   -2.4153 O.2         1 GSH      -0.3944
     14 CB2         3.3816   40.3515   -0.3969 C.3         1 GSH       0.0311
     15 SG2         4.4333   39.6767   -1.7104 S.3         1 GSH      -0.1735
     16 N3         -0.1087   41.1296   -0.8106 N.am        1 GSH      -0.2722
     17 CA3        -1.0277   41.9387   -1.5432 C.3         1 GSH       0.0833
     18 C3         -0.5023   43.2996   -1.7442 C.2         1 GSH       0.0570
     19 O31        -0.1710   44.0616   -0.6724 O.co2       1 GSH      -0.5669
     20 O32        -0.5358   43.9030   -2.9595 O.co2       1 GSH      -0.5669
     21 H1          1.0313   33.0472   -0.0203 H           1 GSH       0.2010
     22 H2          2.2046   32.4331    1.0101 H           1 GSH       0.2010
     23 H3          2.0250   31.8062   -0.5365 H           1 GSH       0.2010
     24 H4          2.7467   33.7732   -1.5466 H           1 GSH       0.1026
     25 H5          3.8238   35.4592    0.3581 H           1 GSH       0.0363
     26 H6          2.3989   34.8564    1.2366 H           1 GSH       0.0363
     27 H7          0.8838   35.6974   -0.5285 H           1 GSH       0.0505
     28 H8          2.2648   36.0524   -1.5786 H           1 GSH       0.0505
     29 H9          1.7090   38.2537   -1.7107 H           1 GSH       0.1883
     30 H10         1.5634   39.9532    0.6397 H           1 GSH       0.0808
     31 H11         3.8634   40.1143    0.5538 H           1 GSH       0.0422
     32 H12         3.3990   41.4386   -0.4926 H           1 GSH       0.0422
     33 H13         4.8262   38.6284   -0.9274 H           1 GSH       0.1019
     34 H14        -0.3525   40.9126    0.1049 H           1 GSH       0.1873
     35 H15        -1.9414   42.0309   -0.9669 H           1 GSH       0.0689
     36 H16        -1.2740   41.4810   -2.4919 H           1 GSH       0.0689
@<TRIPOS>BOND
     1     1     2   1
     2     2     3   1
     3     2     6   1
     4     3     4  ar
     5     3     5  ar
     6     6     7   1
     7     7     8   1
     8     8     9   2
     9     8    10  am
    10    10    11   1
    11    11    12   1
    12    11    14   1
    13    12    13   2
    14    12    16  am
    15    14    15   1
    16    16    17   1
    17    17    18   1
    18    18    19  ar
    19    18    20  ar
    20     1    21   1
    21     1    22   1
    22     1    23   1
    23     2    24   1
    24     6    25   1
    25     6    26   1
    26     7    27   1
    27     7    28   1
    28    10    29   1
    29    11    30   1
    30    14    31   1
    31    14    32   1
    32    15    33   1
    33    16    34   1
    34    17    35   1
    35    17    36   1
@<TRIPOS>SUBSTRUCTURE
     1  GSH      2

