@<TRIPOS>MOLECULE
1lbk_ligand_051
    36    35
SMALL
GAST_HUCK
****
This file was generated by PARSER (from files_GN.cpp)

@<TRIPOS>ATOM
      1 N1          5.5733   38.7371   -1.5390 N.4         1 GSH       0.2328
      2 CA1         6.4613   38.1329   -2.5390 C.3         1 GSH       0.0304
      3 C1          6.4331   38.9888   -3.7411 C.2         1 GSH       0.0846
      4 O11         7.4817   39.7977   -4.0129 O.co2       1 GSH      -0.5643
      5 O12         5.2689   39.2536   -4.3665 O.co2       1 GSH      -0.5643
      6 CB1         6.1148   36.6367   -2.8058 C.3         1 GSH       0.0193
      7 CG1         4.6488   36.2064   -2.5001 C.3         1 GSH       0.0441
      8 CD1         4.4268   34.7791   -2.6702 C.2         1 GSH       0.1785
      9 OE1         3.9882   34.3645   -3.7368 O.2         1 GSH      -0.3969
     10 N2          4.6296   33.9688   -1.6347 N.am        1 GSH      -0.2648
     11 CA2         4.3837   32.5581   -1.5304 C.3         1 GSH       0.1395
     12 C2          5.4544   31.7782   -2.1529 C.2         1 GSH       0.2039
     13 O2          5.3105   31.3682   -3.3010 O.2         1 GSH      -0.3944
     14 CB2         2.9541   32.1692   -2.0147 C.3         1 GSH       0.0311
     15 SG2         2.4424   30.5254   -1.4567 S.3         1 GSH      -0.1735
     16 N3          6.5687   31.5114   -1.4764 N.am        1 GSH      -0.2722
     17 CA3         7.6807   30.7274   -1.9266 C.3         1 GSH       0.0833
     18 C3          8.1661   31.1291   -3.2590 C.2         1 GSH       0.0570
     19 O31         9.0838   32.1193   -3.3809 O.co2       1 GSH      -0.5669
     20 O32         7.6189   30.6044   -4.3763 O.co2       1 GSH      -0.5669
     21 H1          5.5602   38.1539   -0.7076 H           1 GSH       0.2010
     22 H2          4.6238   38.8190   -1.9128 H           1 GSH       0.2010
     23 H3          5.9182   39.6595   -1.2896 H           1 GSH       0.2010
     24 H4          7.4735   38.1677   -2.1250 H           1 GSH       0.1026
     25 H5          6.7843   36.0241   -2.1897 H           1 GSH       0.0363
     26 H6          6.3432   36.4029   -3.8521 H           1 GSH       0.0363
     27 H7          3.9752   36.7763   -3.1447 H           1 GSH       0.0505
     28 H8          4.4039   36.4634   -1.4670 H           1 GSH       0.0505
     29 H9          4.9524   34.3936   -0.8254 H           1 GSH       0.1883
     30 H10         4.3981   32.3661   -0.4508 H           1 GSH       0.0808
     31 H11         2.8993   32.1908   -3.1053 H           1 GSH       0.0422
     32 H12         2.2340   32.8926   -1.6232 H           1 GSH       0.0422
     33 H13         1.2356   30.6035   -2.0791 H           1 GSH       0.1019
     34 H14         6.6343   31.8685   -0.5756 H           1 GSH       0.1873
     35 H15         7.4000   29.6696   -1.9267 H           1 GSH       0.0689
     36 H16         8.4974   30.8476   -1.2088 H           1 GSH       0.0689
@<TRIPOS>BOND
     1     1     2   1
     2     2     3   1
     3     2     6   1
     4     3     4  ar
     5     3     5  ar
     6     6     7   1
     7     7     8   1
     8     8     9   2
     9     8    10  am
    10    10    11   1
    11    11    12   1
    12    11    14   1
    13    12    13   2
    14    12    16  am
    15    14    15   1
    16    16    17   1
    17    17    18   1
    18    18    19  ar
    19    18    20  ar
    20     1    21   1
    21     1    22   1
    22     1    23   1
    23     2    24   1
    24     6    25   1
    25     6    26   1
    26     7    27   1
    27     7    28   1
    28    10    29   1
    29    11    30   1
    30    14    31   1
    31    14    32   1
    32    15    33   1
    33    16    34   1
    34    17    35   1
    35    17    36   1
@<TRIPOS>SUBSTRUCTURE
     1  GSH      2

