@<TRIPOS>MOLECULE
1lbk_ligand_058
    36    35
SMALL
GAST_HUCK
****
This file was generated by PARSER (from files_GN.cpp)

@<TRIPOS>ATOM
      1 N1         -2.6393   37.0267    0.0872 N.4         1 GSH       0.2328
      2 CA1        -1.4026   37.7203   -0.3130 C.3         1 GSH       0.0304
      3 C1         -1.7974   39.0005   -0.9301 C.2         1 GSH       0.0846
      4 O11        -2.0843   40.0736   -0.1584 O.co2       1 GSH      -0.5643
      5 O12        -2.2143   39.0312   -2.2196 O.co2       1 GSH      -0.5643
      6 CB1        -0.4829   36.8050   -1.1949 C.3         1 GSH       0.0193
      7 CG1         0.9486   36.5059   -0.6368 C.3         1 GSH       0.0441
      8 CD1         2.0128   37.2989   -1.2464 C.2         1 GSH       0.1785
      9 OE1         2.9274   36.7040   -1.7870 O.2         1 GSH      -0.3969
     10 N2          1.9244   38.6291   -1.2377 N.am        1 GSH      -0.2648
     11 CA2         2.7770   39.6378   -1.8379 C.3         1 GSH       0.1395
     12 C2          3.9469   39.1999   -2.6075 C.2         1 GSH       0.2039
     13 O2          3.9946   39.4496   -3.8098 O.2         1 GSH      -0.3944
     14 CB2         3.1549   40.7184   -0.7773 C.3         1 GSH       0.0311
     15 SG2         3.6771   40.0714    0.8241 S.3         1 GSH      -0.1735
     16 N3          4.9319   38.5244   -2.0277 N.am        1 GSH      -0.2722
     17 CA3         6.0869   37.9648   -2.6542 C.3         1 GSH       0.0833
     18 C3          7.1769   38.9409   -2.7982 C.2         1 GSH       0.0570
     19 O31         7.0857   39.9533   -3.6882 O.co2       1 GSH      -0.5669
     20 O32         8.3297   38.7916   -2.1064 O.co2       1 GSH      -0.5669
     21 H1         -2.3987   36.1239    0.5011 H           1 GSH       0.2010
     22 H2         -3.2494   36.8895   -0.7247 H           1 GSH       0.2010
     23 H3         -3.1370   37.5823    0.7884 H           1 GSH       0.2010
     24 H4         -0.8913   37.9439    0.6229 H           1 GSH       0.1026
     25 H5         -0.4142   37.2045   -2.2115 H           1 GSH       0.0363
     26 H6         -0.9829   35.8385   -1.3087 H           1 GSH       0.0363
     27 H7          1.1566   35.4437   -0.8071 H           1 GSH       0.0505
     28 H8          0.9943   36.6412    0.4466 H           1 GSH       0.0505
     29 H9          1.1261   38.9828   -0.8137 H           1 GSH       0.1883
     30 H10         2.1008   40.1593   -2.5244 H           1 GSH       0.0808
     31 H11         2.2999   41.3738   -0.6033 H           1 GSH       0.0422
     32 H12         3.9671   41.3430   -1.1573 H           1 GSH       0.0422
     33 H13         2.5095   39.4178    1.0642 H           1 GSH       0.1019
     34 H14         4.8272   38.3278   -1.0827 H           1 GSH       0.1873
     35 H15         5.8297   37.5423   -3.6285 H           1 GSH       0.0689
     36 H16         6.4288   37.1455   -2.0207 H           1 GSH       0.0689
@<TRIPOS>BOND
     1     1     2   1
     2     2     3   1
     3     2     6   1
     4     3     4  ar
     5     3     5  ar
     6     6     7   1
     7     7     8   1
     8     8     9   2
     9     8    10  am
    10    10    11   1
    11    11    12   1
    12    11    14   1
    13    12    13   2
    14    12    16  am
    15    14    15   1
    16    16    17   1
    17    17    18   1
    18    18    19  ar
    19    18    20  ar
    20     1    21   1
    21     1    22   1
    22     1    23   1
    23     2    24   1
    24     6    25   1
    25     6    26   1
    26     7    27   1
    27     7    28   1
    28    10    29   1
    29    11    30   1
    30    14    31   1
    31    14    32   1
    32    15    33   1
    33    16    34   1
    34    17    35   1
    35    17    36   1
@<TRIPOS>SUBSTRUCTURE
     1  GSH      2

