@<TRIPOS>MOLECULE
1lbk_ligand_028
    36    35
SMALL
GAST_HUCK
****
This file was generated by PARSER (from files_GN.cpp)

@<TRIPOS>ATOM
      1 N1          7.6026   36.3394   -3.8428 N.4         1 GSH       0.2328
      2 CA1         6.6843   37.4040   -3.4068 C.3         1 GSH       0.0304
      3 C1          7.5110   38.5994   -3.1080 C.2         1 GSH       0.0846
      4 O11         8.4853   38.5422   -2.1651 O.co2       1 GSH      -0.5643
      5 O12         7.4466   39.6884   -3.9153 O.co2       1 GSH      -0.5643
      6 CB1         5.7779   36.9460   -2.2215 C.3         1 GSH       0.0193
      7 CG1         4.2972   37.4215   -2.2721 C.3         1 GSH       0.0441
      8 CD1         4.0766   38.8729   -2.2570 C.2         1 GSH       0.1785
      9 OE1         3.6002   39.4131   -3.2500 O.2         1 GSH      -0.3969
     10 N2          4.2812   39.5409   -1.1291 N.am        1 GSH      -0.2648
     11 CA2         4.0106   40.9202   -0.7817 C.3         1 GSH       0.1395
     12 C2          2.5791   41.1730   -0.6335 C.2         1 GSH       0.2039
     13 O2          1.8971   41.3416   -1.6352 O.2         1 GSH      -0.3944
     14 CB2         4.7305   42.0554   -1.5883 C.3         1 GSH       0.0311
     15 SG2         5.5242   41.6058   -3.1474 S.3         1 GSH      -0.1735
     16 N3          2.0455   41.3292    0.5817 N.am        1 GSH      -0.2722
     17 CA3         0.7618   41.8851    0.8918 C.3         1 GSH       0.0833
     18 C3          0.9041   42.8204    2.0163 C.2         1 GSH       0.0570
     19 O31         1.1971   42.3811    3.2678 O.co2       1 GSH      -0.5669
     20 O32         0.8561   44.1665    1.8202 O.co2       1 GSH      -0.5669
     21 H1          7.0620   35.5132   -4.1162 H           1 GSH       0.2010
     22 H2          8.2385   36.0901   -3.0730 H           1 GSH       0.2010
     23 H3          8.1508   36.6638   -4.6428 H           1 GSH       0.2010
     24 H4          6.0538   37.6335   -4.2641 H           1 GSH       0.1026
     25 H5          6.2156   37.2300   -1.2554 H           1 GSH       0.0363
     26 H6          5.7341   35.8513   -2.2233 H           1 GSH       0.0363
     27 H7          3.7647   37.0111   -1.4062 H           1 GSH       0.0505
     28 H8          3.8284   36.9833   -3.1577 H           1 GSH       0.0505
     29 H9          4.6103   38.9989   -0.3981 H           1 GSH       0.1883
     30 H10         4.4395   40.9773    0.2217 H           1 GSH       0.0808
     31 H11         5.5150   42.5060   -0.9718 H           1 GSH       0.0422
     32 H12         4.0308   42.8647   -1.8324 H           1 GSH       0.0422
     33 H13         6.5234   40.9712   -2.4857 H           1 GSH       0.1019
     34 H14         2.6205   41.1114    1.3374 H           1 GSH       0.1873
     35 H15         0.0773   41.0911    1.1836 H           1 GSH       0.0689
     36 H16         0.3322   42.4123    0.0446 H           1 GSH       0.0689
@<TRIPOS>BOND
     1     1     2   1
     2     2     3   1
     3     2     6   1
     4     3     4  ar
     5     3     5  ar
     6     6     7   1
     7     7     8   1
     8     8     9   2
     9     8    10  am
    10    10    11   1
    11    11    12   1
    12    11    14   1
    13    12    13   2
    14    12    16  am
    15    14    15   1
    16    16    17   1
    17    17    18   1
    18    18    19  ar
    19    18    20  ar
    20     1    21   1
    21     1    22   1
    22     1    23   1
    23     2    24   1
    24     6    25   1
    25     6    26   1
    26     7    27   1
    27     7    28   1
    28    10    29   1
    29    11    30   1
    30    14    31   1
    31    14    32   1
    32    15    33   1
    33    16    34   1
    34    17    35   1
    35    17    36   1
@<TRIPOS>SUBSTRUCTURE
     1  GSH      2

