@<TRIPOS>MOLECULE
1lbk_ligand_017
    36    35
SMALL
GAST_HUCK
****
This file was generated by PARSER (from files_GN.cpp)

@<TRIPOS>ATOM
      1 N1         11.9604   39.8205   -2.8961 N.4         1 GSH       0.2328
      2 CA1        10.7791   39.0052   -3.2243 C.3         1 GSH       0.0304
      3 C1          9.6265   39.9059   -3.4201 C.2         1 GSH       0.0846
      4 O11         9.0833   40.0645   -4.6570 O.co2       1 GSH      -0.5643
      5 O12         9.0087   40.4892   -2.3608 O.co2       1 GSH      -0.5643
      6 CB1        10.5741   37.8940   -2.1416 C.3         1 GSH       0.0193
      7 CG1         9.1485   37.6807   -1.5532 C.3         1 GSH       0.0441
      8 CD1         8.0616   37.3604   -2.4702 C.2         1 GSH       0.1785
      9 OE1         8.2184   37.3544   -3.6850 O.2         1 GSH      -0.3969
     10 N2          6.8698   37.1470   -1.9282 N.am        1 GSH      -0.2648
     11 CA2         5.6005   37.0458   -2.5912 C.3         1 GSH       0.1395
     12 C2          5.0388   38.3882   -2.6500 C.2         1 GSH       0.2039
     13 O2          4.6947   38.8401   -3.7347 O.2         1 GSH      -0.3944
     14 CB2         4.6979   36.0408   -1.8108 C.3         1 GSH       0.0311
     15 SG2         3.4915   35.1679   -2.8398 S.3         1 GSH      -0.1735
     16 N3          4.9120   39.1156   -1.5434 N.am        1 GSH      -0.2722
     17 CA3         4.3193   40.4122   -1.4256 C.3         1 GSH       0.0833
     18 C3          4.9903   41.4473   -2.2370 C.2         1 GSH       0.0570
     19 O31         4.5576   42.7279   -2.1678 O.co2       1 GSH      -0.5669
     20 O32         5.7126   41.1033   -3.3317 O.co2       1 GSH      -0.5669
     21 H1         12.7812   39.2200   -2.8636 H           1 GSH       0.2010
     22 H2         11.8318   40.2584   -1.9768 H           1 GSH       0.2010
     23 H3         12.1090   40.5539   -3.5959 H           1 GSH       0.2010
     24 H4         10.9967   38.5150   -4.1802 H           1 GSH       0.1026
     25 H5         11.2346   38.1074   -1.2954 H           1 GSH       0.0363
     26 H6         10.9101   36.9471   -2.5710 H           1 GSH       0.0363
     27 H7          8.8777   38.5885   -1.0057 H           1 GSH       0.0505
     28 H8          9.2056   36.8721   -0.8166 H           1 GSH       0.0505
     29 H9          6.8277   37.1751   -0.9588 H           1 GSH       0.1883
     30 H10         5.7280   36.6482   -3.6073 H           1 GSH       0.0808
     31 H11         4.1610   36.5500   -1.0054 H           1 GSH       0.0422
     32 H12         5.3368   35.2810   -1.3563 H           1 GSH       0.0422
     33 H13         2.6893   36.2531   -3.0404 H           1 GSH       0.1019
     34 H14         5.2070   38.7016   -0.7182 H           1 GSH       0.1873
     35 H15         4.3799   40.7009   -0.3770 H           1 GSH       0.0689
     36 H16         3.2554   40.3672   -1.6951 H           1 GSH       0.0689
@<TRIPOS>BOND
     1     1     2   1
     2     2     3   1
     3     2     6   1
     4     3     4  ar
     5     3     5  ar
     6     6     7   1
     7     7     8   1
     8     8     9   2
     9     8    10  am
    10    10    11   1
    11    11    12   1
    12    11    14   1
    13    12    13   2
    14    12    16  am
    15    14    15   1
    16    16    17   1
    17    17    18   1
    18    18    19  ar
    19    18    20  ar
    20     1    21   1
    21     1    22   1
    22     1    23   1
    23     2    24   1
    24     6    25   1
    25     6    26   1
    26     7    27   1
    27     7    28   1
    28    10    29   1
    29    11    30   1
    30    14    31   1
    31    14    32   1
    32    15    33   1
    33    16    34   1
    34    17    35   1
    35    17    36   1
@<TRIPOS>SUBSTRUCTURE
     1  GSH      2

