@<TRIPOS>MOLECULE
1lbk_ligand_060
    36    35
SMALL
GAST_HUCK
****
This file was generated by PARSER (from files_GN.cpp)

@<TRIPOS>ATOM
      1 N1         -0.7125   37.0918   -0.3829 N.4         1 GSH       0.2328
      2 CA1         0.6800   37.4631   -0.6488 C.3         1 GSH       0.0304
      3 C1          1.5811   36.6317    0.1772 C.2         1 GSH       0.0846
      4 O11         2.2903   35.6222   -0.3938 O.co2       1 GSH      -0.5643
      5 O12         1.7217   36.8535    1.5005 O.co2       1 GSH      -0.5643
      6 CB1         0.8389   39.0087   -0.4516 C.3         1 GSH       0.0193
      7 CG1         2.2185   39.5201    0.0529 C.3         1 GSH       0.0441
      8 CD1         3.3566   39.4646   -0.8133 C.2         1 GSH       0.1785
      9 OE1         4.2554   40.2596   -0.5200 O.2         1 GSH      -0.3969
     10 N2          3.4191   38.9179   -2.0280 N.am        1 GSH      -0.2648
     11 CA2         4.5327   38.9708   -2.9245 C.3         1 GSH       0.1395
     12 C2          5.5972   38.0063   -2.6140 C.2         1 GSH       0.2039
     13 O2          5.5100   36.8472   -3.0327 O.2         1 GSH      -0.3944
     14 CB2         5.0918   40.4165   -3.2178 C.3         1 GSH       0.0311
     15 SG2         4.6556   41.7773   -2.0761 S.3         1 GSH      -0.1735
     16 N3          6.6349   38.3453   -1.8708 N.am        1 GSH      -0.2722
     17 CA3         7.7764   37.5690   -1.5118 C.3         1 GSH       0.0833
     18 C3          8.6897   37.3591   -2.6503 C.2         1 GSH       0.0570
     19 O31         8.2231   36.8560   -3.8141 O.co2       1 GSH      -0.5669
     20 O32        10.0309   37.3980   -2.4641 O.co2       1 GSH      -0.5669
     21 H1         -1.3257   37.6482   -0.9702 H           1 GSH       0.2010
     22 H2         -0.9477   37.2633    0.5981 H           1 GSH       0.2010
     23 H3         -0.8425   36.1120   -0.5942 H           1 GSH       0.2010
     24 H4          0.8818   37.2533   -1.7060 H           1 GSH       0.1026
     25 H5          0.0964   39.3484    0.2944 H           1 GSH       0.0363
     26 H6          0.5869   39.5290   -1.3911 H           1 GSH       0.0363
     27 H7          2.4649   38.9561    0.9697 H           1 GSH       0.0505
     28 H8          2.0723   40.5544    0.3628 H           1 GSH       0.0505
     29 H9          2.6569   38.4114   -2.3361 H           1 GSH       0.1883
     30 H10         4.1487   38.6425   -3.8951 H           1 GSH       0.0808
     31 H11         4.7160   40.7240   -4.1998 H           1 GSH       0.0422
     32 H12         6.1910   40.3886   -3.3248 H           1 GSH       0.0422
     33 H13         5.9033   41.9088   -1.4520 H           1 GSH       0.1019
     34 H14         6.6270   39.2386   -1.5292 H           1 GSH       0.1873
     35 H15         7.4616   36.6088   -1.1073 H           1 GSH       0.0689
     36 H16         8.3074   38.1084   -0.7274 H           1 GSH       0.0689
@<TRIPOS>BOND
     1     1     2   1
     2     2     3   1
     3     2     6   1
     4     3     4  ar
     5     3     5  ar
     6     6     7   1
     7     7     8   1
     8     8     9   2
     9     8    10  am
    10    10    11   1
    11    11    12   1
    12    11    14   1
    13    12    13   2
    14    12    16  am
    15    14    15   1
    16    16    17   1
    17    17    18   1
    18    18    19  ar
    19    18    20  ar
    20     1    21   1
    21     1    22   1
    22     1    23   1
    23     2    24   1
    24     6    25   1
    25     6    26   1
    26     7    27   1
    27     7    28   1
    28    10    29   1
    29    11    30   1
    30    14    31   1
    31    14    32   1
    32    15    33   1
    33    16    34   1
    34    17    35   1
    35    17    36   1
@<TRIPOS>SUBSTRUCTURE
     1  GSH      2

