@<TRIPOS>MOLECULE
1lbk_ligand_004
    36    35
SMALL
GAST_HUCK
****
This file was generated by PARSER (from files_GN.cpp)

@<TRIPOS>ATOM
      1 N1         11.3264   35.8663    3.9914 N.4         1 GSH       0.2328
      2 CA1        10.0140   35.4199    3.4973 C.3         1 GSH       0.0304
      3 C1         10.1540   34.0797    2.8874 C.2         1 GSH       0.0846
      4 O11        10.8228   33.1119    3.5620 O.co2       1 GSH      -0.5643
      5 O12         9.2540   33.6594    1.9765 O.co2       1 GSH      -0.5643
      6 CB1         9.3658   36.5117    2.5831 C.3         1 GSH       0.0193
      7 CG1         9.7530   36.4435    1.0746 C.3         1 GSH       0.0441
      8 CD1         9.6251   37.6866    0.3155 C.2         1 GSH       0.1785
      9 OE1        10.3057   38.6382    0.6611 O.2         1 GSH      -0.3969
     10 N2          8.9681   37.7187   -0.8532 N.am        1 GSH      -0.2648
     11 CA2         9.0416   38.7280   -1.8846 C.3         1 GSH       0.1395
     12 C2          7.7388   39.0803   -2.4725 C.2         1 GSH       0.2039
     13 O2          7.6999   39.8020   -3.4677 O.2         1 GSH      -0.3944
     14 CB2        10.0605   38.2452   -2.9644 C.3         1 GSH       0.0311
     15 SG2         9.5799   36.7509   -3.8684 S.3         1 GSH      -0.1735
     16 N3          6.5986   38.6885   -1.9078 N.am        1 GSH      -0.2722
     17 CA3         5.2716   38.8513   -2.4522 C.3         1 GSH       0.0833
     18 C3          4.8363   40.2580   -2.5550 C.2         1 GSH       0.0570
     19 O31         5.4623   41.1057   -3.4163 O.co2       1 GSH      -0.5669
     20 O32         3.7317   40.6912   -1.8876 O.co2       1 GSH      -0.5669
     21 H1         11.2178   36.7543    4.4881 H           1 GSH       0.2010
     22 H2         11.9699   35.9884    3.2113 H           1 GSH       0.2010
     23 H3         11.7111   35.1739    4.6364 H           1 GSH       0.2010
     24 H4          9.3738   35.3066    4.3829 H           1 GSH       0.1026
     25 H5          9.6316   37.4921    2.9863 H           1 GSH       0.0363
     26 H6          8.2756   36.4226    2.6602 H           1 GSH       0.0363
     27 H7          9.1195   35.6660    0.6180 H           1 GSH       0.0505
     28 H8         10.7888   36.1100    0.9815 H           1 GSH       0.0505
     29 H9          8.5105   36.8931   -1.0976 H           1 GSH       0.1883
     30 H10         9.4273   39.6649   -1.4873 H           1 GSH       0.0808
     31 H11        11.0264   38.0634   -2.4955 H           1 GSH       0.0422
     32 H12        10.2200   39.0390   -3.7007 H           1 GSH       0.0422
     33 H13         9.7410   35.9206   -2.8047 H           1 GSH       0.1019
     34 H14         6.6361   38.2127   -1.0646 H           1 GSH       0.1873
     35 H15         4.5757   38.3039   -1.7937 H           1 GSH       0.0689
     36 H16         5.2170   38.3822   -3.4433 H           1 GSH       0.0689
@<TRIPOS>BOND
     1     1     2   1
     2     2     3   1
     3     2     6   1
     4     3     4  ar
     5     3     5  ar
     6     6     7   1
     7     7     8   1
     8     8     9   2
     9     8    10  am
    10    10    11   1
    11    11    12   1
    12    11    14   1
    13    12    13   2
    14    12    16  am
    15    14    15   1
    16    16    17   1
    17    17    18   1
    18    18    19  ar
    19    18    20  ar
    20     1    21   1
    21     1    22   1
    22     1    23   1
    23     2    24   1
    24     6    25   1
    25     6    26   1
    26     7    27   1
    27     7    28   1
    28    10    29   1
    29    11    30   1
    30    14    31   1
    31    14    32   1
    32    15    33   1
    33    16    34   1
    34    17    35   1
    35    17    36   1
@<TRIPOS>SUBSTRUCTURE
     1  GSH      2

