@<TRIPOS>MOLECULE
1lbk_ligand_011
    36    35
SMALL
GAST_HUCK
****
This file was generated by PARSER (from files_GN.cpp)

@<TRIPOS>ATOM
      1 N1          0.4671   40.8567   -1.5806 N.4         1 GSH       0.2328
      2 CA1         0.7474   41.6254   -0.3608 C.3         1 GSH       0.0304
      3 C1          0.7292   43.0818   -0.6250 C.2         1 GSH       0.0846
      4 O11         0.7884   43.5888   -1.8786 O.co2       1 GSH      -0.5643
      5 O12         0.3661   43.9345    0.3618 O.co2       1 GSH      -0.5643
      6 CB1         2.0572   41.1302    0.3306 C.3         1 GSH       0.0193
      7 CG1         3.3561   41.0839   -0.5429 C.3         1 GSH       0.0441
      8 CD1         3.6038   39.8438   -1.2779 C.2         1 GSH       0.1785
      9 OE1         2.6708   39.3060   -1.8568 O.2         1 GSH      -0.3969
     10 N2          4.8433   39.3624   -1.3638 N.am        1 GSH      -0.2648
     11 CA2         5.3839   38.1604   -1.9543 C.3         1 GSH       0.1395
     12 C2          6.6791   38.5145   -2.5251 C.2         1 GSH       0.2039
     13 O2          6.7290   39.0757   -3.6119 O.2         1 GSH      -0.3944
     14 CB2         4.5161   37.3422   -2.9507 C.3         1 GSH       0.0311
     15 SG2         3.5286   36.0641   -2.1369 S.3         1 GSH      -0.1735
     16 N3          7.7826   38.2247   -1.8446 N.am        1 GSH      -0.2722
     17 CA3         9.1406   38.3309   -2.2841 C.3         1 GSH       0.0833
     18 C3          9.5675   39.7098   -2.5511 C.2         1 GSH       0.0570
     19 O31         9.0772   40.3768   -3.6174 O.co2       1 GSH      -0.5669
     20 O32        10.5443   40.2850   -1.8178 O.co2       1 GSH      -0.5669
     21 H1          0.4424   39.8599   -1.3570 H           1 GSH       0.2010
     22 H2          1.1956   41.0287   -2.2726 H           1 GSH       0.2010
     23 H3         -0.4364   41.1376   -1.9651 H           1 GSH       0.2010
     24 H4         -0.0844   41.4146    0.3219 H           1 GSH       0.1026
     25 H5          1.8766   40.1369    0.7583 H           1 GSH       0.0363
     26 H6          2.2419   41.7967    1.1829 H           1 GSH       0.0363
     27 H7          4.2024   41.2482    0.1267 H           1 GSH       0.0505
     28 H8          3.3472   41.9079   -1.2573 H           1 GSH       0.0505
     29 H9          5.5119   39.8963   -0.8990 H           1 GSH       0.1883
     30 H10         5.5696   37.4962   -1.1144 H           1 GSH       0.0808
     31 H11         5.1490   36.8209   -3.6786 H           1 GSH       0.0422
     32 H12         3.8702   38.0302   -3.5105 H           1 GSH       0.0422
     33 H13         2.3839   36.4225   -2.7864 H           1 GSH       0.1019
     34 H14         7.6456   37.8382   -0.9625 H           1 GSH       0.1873
     35 H15         9.2964   37.7201   -3.1767 H           1 GSH       0.0689
     36 H16         9.7646   37.9120   -1.4911 H           1 GSH       0.0689
@<TRIPOS>BOND
     1     1     2   1
     2     2     3   1
     3     2     6   1
     4     3     4  ar
     5     3     5  ar
     6     6     7   1
     7     7     8   1
     8     8     9   2
     9     8    10  am
    10    10    11   1
    11    11    12   1
    12    11    14   1
    13    12    13   2
    14    12    16  am
    15    14    15   1
    16    16    17   1
    17    17    18   1
    18    18    19  ar
    19    18    20  ar
    20     1    21   1
    21     1    22   1
    22     1    23   1
    23     2    24   1
    24     6    25   1
    25     6    26   1
    26     7    27   1
    27     7    28   1
    28    10    29   1
    29    11    30   1
    30    14    31   1
    31    14    32   1
    32    15    33   1
    33    16    34   1
    34    17    35   1
    35    17    36   1
@<TRIPOS>SUBSTRUCTURE
     1  GSH      2

