@<TRIPOS>MOLECULE
1lbk_ligand_054
    36    35
SMALL
GAST_HUCK
****
This file was generated by PARSER (from files_GN.cpp)

@<TRIPOS>ATOM
      1 N1          2.2907   32.6228   -0.1744 N.4         1 GSH       0.2328
      2 CA1         3.4361   33.5600   -0.1646 C.3         1 GSH       0.0304
      3 C1          4.5757   33.0290    0.6122 C.2         1 GSH       0.0846
      4 O11         5.8442   33.2365    0.1709 O.co2       1 GSH      -0.5643
      5 O12         4.4025   32.3014    1.7458 O.co2       1 GSH      -0.5643
      6 CB1         3.0052   34.9488    0.4047 C.3         1 GSH       0.0193
      7 CG1         2.2261   35.8435   -0.6019 C.3         1 GSH       0.0441
      8 CD1         2.0414   37.2280   -0.1729 C.2         1 GSH       0.1785
      9 OE1         2.0913   37.5110    1.0250 O.2         1 GSH      -0.3969
     10 N2          1.8572   38.1499   -1.1116 N.am        1 GSH      -0.2648
     11 CA2         1.9276   39.5875   -1.0314 C.3         1 GSH       0.1395
     12 C2          3.2522   40.0117   -1.4845 C.2         1 GSH       0.2039
     13 O2          3.9146   40.8044   -0.8087 O.2         1 GSH      -0.3944
     14 CB2         1.4306   40.2198    0.3117 C.3         1 GSH       0.0311
     15 SG2         1.0571   42.0033    0.1820 S.3         1 GSH      -0.1735
     16 N3          3.6612   39.6533   -2.6953 N.am        1 GSH      -0.2722
     17 CA3         4.8241   40.1235   -3.3773 C.3         1 GSH       0.0833
     18 C3          6.0073   39.2547   -3.2465 C.2         1 GSH       0.0570
     19 O31         7.1649   39.6403   -3.8348 O.co2       1 GSH      -0.5669
     20 O32         5.9043   37.9894   -2.7736 O.co2       1 GSH      -0.5669
     21 H1          1.5330   33.0152   -0.7582 H           1 GSH       0.2010
     22 H2          1.9550   32.4873    0.7931 H           1 GSH       0.2010
     23 H3          2.5973   31.7222   -0.5708 H           1 GSH       0.2010
     24 H4          3.7691   33.6859   -1.2073 H           1 GSH       0.1026
     25 H5          3.9126   35.4778    0.7309 H           1 GSH       0.0363
     26 H6          2.3787   34.7874    1.2977 H           1 GSH       0.0363
     27 H7          1.2378   35.3966   -0.8013 H           1 GSH       0.0505
     28 H8          2.7919   35.8424   -1.5518 H           1 GSH       0.0505
     29 H9          1.8047   37.8068   -2.0172 H           1 GSH       0.1883
     30 H10         1.2123   39.9307   -1.7884 H           1 GSH       0.0808
     31 H11         2.1970   40.0829    1.0956 H           1 GSH       0.0422
     32 H12         0.5059   39.7146    0.6290 H           1 GSH       0.0422
     33 H13         1.1113   42.1775    1.5277 H           1 GSH       0.1019
     34 H14         3.0689   39.0719   -3.1989 H           1 GSH       0.1873
     35 H15         5.0834   41.1382   -3.0351 H           1 GSH       0.0689
     36 H16         4.5708   40.1892   -4.4399 H           1 GSH       0.0689
@<TRIPOS>BOND
     1     1     2   1
     2     2     3   1
     3     2     6   1
     4     3     4  ar
     5     3     5  ar
     6     6     7   1
     7     7     8   1
     8     8     9   2
     9     8    10  am
    10    10    11   1
    11    11    12   1
    12    11    14   1
    13    12    13   2
    14    12    16  am
    15    14    15   1
    16    16    17   1
    17    17    18   1
    18    18    19  ar
    19    18    20  ar
    20     1    21   1
    21     1    22   1
    22     1    23   1
    23     2    24   1
    24     6    25   1
    25     6    26   1
    26     7    27   1
    27     7    28   1
    28    10    29   1
    29    11    30   1
    30    14    31   1
    31    14    32   1
    32    15    33   1
    33    16    34   1
    34    17    35   1
    35    17    36   1
@<TRIPOS>SUBSTRUCTURE
     1  GSH      2

