@<TRIPOS>MOLECULE
1lbk_ligand_055
    36    35
SMALL
GAST_HUCK
****
This file was generated by PARSER (from files_GN.cpp)

@<TRIPOS>ATOM
      1 N1         12.5487   33.4748    1.9458 N.4         1 GSH       0.2328
      2 CA1        11.2697   33.9905    2.4618 C.3         1 GSH       0.0304
      3 C1         10.2991   32.8746    2.4984 C.2         1 GSH       0.0846
      4 O11         9.5436   32.5946    1.4102 O.co2       1 GSH      -0.5643
      5 O12        10.5229   31.8609    3.3645 O.co2       1 GSH      -0.5643
      6 CB1        10.8153   35.1942    1.5869 C.3         1 GSH       0.0193
      7 CG1         9.5224   35.9230    2.0493 C.3         1 GSH       0.0441
      8 CD1         9.2278   37.0844    1.2230 C.2         1 GSH       0.1785
      9 OE1         9.1974   38.1880    1.7532 O.2         1 GSH      -0.3969
     10 N2          9.0094   36.9329   -0.0810 N.am        1 GSH      -0.2648
     11 CA2         8.7280   37.9511   -1.0579 C.3         1 GSH       0.1395
     12 C2          7.4924   37.5972   -1.7606 C.2         1 GSH       0.2039
     13 O2          7.4818   36.6028   -2.4794 O.2         1 GSH      -0.3944
     14 CB2         9.9277   38.1178   -2.0356 C.3         1 GSH       0.0311
     15 SG2        11.3986   38.7679   -1.2029 S.3         1 GSH      -0.1735
     16 N3          6.4011   38.3382   -1.6046 N.am        1 GSH      -0.2722
     17 CA3         5.1418   38.1854   -2.2671 C.3         1 GSH       0.0833
     18 C3          4.7329   39.4890   -2.8092 C.2         1 GSH       0.0570
     19 O31         3.6652   40.1473   -2.3034 O.co2       1 GSH      -0.5669
     20 O32         5.5062   40.1166   -3.7216 O.co2       1 GSH      -0.5669
     21 H1         13.2189   34.2382    1.9054 H           1 GSH       0.2010
     22 H2         12.4174   33.0991    1.0024 H           1 GSH       0.2010
     23 H3         12.9146   32.7463    2.5623 H           1 GSH       0.2010
     24 H4         11.4416   34.3427    3.4844 H           1 GSH       0.1026
     25 H5         10.6657   34.8262    0.5670 H           1 GSH       0.0363
     26 H6         11.6340   35.9242    1.5537 H           1 GSH       0.0363
     27 H7          9.6442   36.2160    3.0986 H           1 GSH       0.0505
     28 H8          8.6713   35.2391    1.9939 H           1 GSH       0.0505
     29 H9          9.1096   36.0341   -0.4299 H           1 GSH       0.1883
     30 H10         8.5903   38.9205   -0.5738 H           1 GSH       0.0808
     31 H11         9.6584   38.8136   -2.8334 H           1 GSH       0.0422
     32 H12        10.1856   37.1601   -2.4928 H           1 GSH       0.0422
     33 H13        12.1436   38.7626   -2.3446 H           1 GSH       0.1019
     34 H14         6.4673   39.0799   -0.9820 H           1 GSH       0.1873
     35 H15         4.4025   37.8414   -1.5387 H           1 GSH       0.0689
     36 H16         5.1747   37.4651   -3.0866 H           1 GSH       0.0689
@<TRIPOS>BOND
     1     1     2   1
     2     2     3   1
     3     2     6   1
     4     3     4  ar
     5     3     5  ar
     6     6     7   1
     7     7     8   1
     8     8     9   2
     9     8    10  am
    10    10    11   1
    11    11    12   1
    12    11    14   1
    13    12    13   2
    14    12    16  am
    15    14    15   1
    16    16    17   1
    17    17    18   1
    18    18    19  ar
    19    18    20  ar
    20     1    21   1
    21     1    22   1
    22     1    23   1
    23     2    24   1
    24     6    25   1
    25     6    26   1
    26     7    27   1
    27     7    28   1
    28    10    29   1
    29    11    30   1
    30    14    31   1
    31    14    32   1
    32    15    33   1
    33    16    34   1
    34    17    35   1
    35    17    36   1
@<TRIPOS>SUBSTRUCTURE
     1  GSH      2

