@<TRIPOS>MOLECULE
1lbk_ligand_012
    36    35
SMALL
GAST_HUCK
****
This file was generated by PARSER (from files_GN.cpp)

@<TRIPOS>ATOM
      1 N1          5.7336   38.4963   -1.5312 N.4         1 GSH       0.2328
      2 CA1         4.8061   39.1208   -2.4809 C.3         1 GSH       0.0304
      3 C1          5.5105   40.1901   -3.2249 C.2         1 GSH       0.0846
      4 O11         6.7607   39.9728   -3.6889 O.co2       1 GSH      -0.5643
      5 O12         4.9028   41.3395   -3.5928 O.co2       1 GSH      -0.5643
      6 CB1         3.4968   39.5668   -1.7677 C.3         1 GSH       0.0193
      7 CG1         3.6225   40.7820   -0.7947 C.3         1 GSH       0.0441
      8 CD1         2.3525   41.4771   -0.6335 C.2         1 GSH       0.1785
      9 OE1         2.1650   42.5199   -1.2517 O.2         1 GSH      -0.3969
     10 N2          1.3772   40.9132    0.0652 N.am        1 GSH      -0.2648
     11 CA2         0.0017   41.3084    0.2236 C.3         1 GSH       0.1395
     12 C2         -0.8047   40.6739   -0.8112 C.2         1 GSH       0.2039
     13 O2         -0.8938   41.2052   -1.9093 O.2         1 GSH      -0.3944
     14 CB2        -0.3181   42.8220    0.4264 C.3         1 GSH       0.0311
     15 SG2         0.3336   43.4798    1.9794 S.3         1 GSH      -0.1735
     16 N3         -1.3535   39.4898   -0.5648 N.am        1 GSH      -0.2722
     17 CA3        -2.1669   38.7037   -1.4337 C.3         1 GSH       0.0833
     18 C3         -1.4316   37.5059   -1.8786 C.2         1 GSH       0.0570
     19 O31        -0.6643   36.8044   -1.0099 O.co2       1 GSH      -0.5669
     20 O32        -1.7570   36.9110   -3.0472 O.co2       1 GSH      -0.5669
     21 H1          5.2346   37.7936   -0.9809 H           1 GSH       0.2010
     22 H2          6.1139   39.2011   -0.8993 H           1 GSH       0.2010
     23 H3          6.4986   38.0448   -2.0367 H           1 GSH       0.2010
     24 H4          4.5416   38.3496   -3.2088 H           1 GSH       0.1026
     25 H5          3.0985   38.7158   -1.2016 H           1 GSH       0.0363
     26 H6          2.7664   39.7913   -2.5461 H           1 GSH       0.0363
     27 H7          4.3745   41.4872   -1.1685 H           1 GSH       0.0505
     28 H8          3.9928   40.4397    0.1765 H           1 GSH       0.0505
     29 H9          1.6037   40.0549    0.4615 H           1 GSH       0.1883
     30 H10        -0.2904   40.8607    1.1768 H           1 GSH       0.0808
     31 H11        -1.4013   42.9588    0.4680 H           1 GSH       0.0422
     32 H12         0.0597   43.4313   -0.4059 H           1 GSH       0.0422
     33 H13         1.6259   43.4647    1.5689 H           1 GSH       0.1019
     34 H14        -1.1805   39.0950    0.3001 H           1 GSH       0.1873
     35 H15        -2.5196   39.2639   -2.3059 H           1 GSH       0.0689
     36 H16        -3.0429   38.3798   -0.8688 H           1 GSH       0.0689
@<TRIPOS>BOND
     1     1     2   1
     2     2     3   1
     3     2     6   1
     4     3     4  ar
     5     3     5  ar
     6     6     7   1
     7     7     8   1
     8     8     9   2
     9     8    10  am
    10    10    11   1
    11    11    12   1
    12    11    14   1
    13    12    13   2
    14    12    16  am
    15    14    15   1
    16    16    17   1
    17    17    18   1
    18    18    19  ar
    19    18    20  ar
    20     1    21   1
    21     1    22   1
    22     1    23   1
    23     2    24   1
    24     6    25   1
    25     6    26   1
    26     7    27   1
    27     7    28   1
    28    10    29   1
    29    11    30   1
    30    14    31   1
    31    14    32   1
    32    15    33   1
    33    16    34   1
    34    17    35   1
    35    17    36   1
@<TRIPOS>SUBSTRUCTURE
     1  GSH      2

