@<TRIPOS>MOLECULE
1lbk_ligand_006
    36    35
SMALL
GAST_HUCK
****
This file was generated by PARSER (from files_GN.cpp)

@<TRIPOS>ATOM
      1 N1          4.6545   39.3286   -1.4784 N.4         1 GSH       0.2328
      2 CA1         5.9381   38.9064   -2.0639 C.3         1 GSH       0.0304
      3 C1          6.3012   39.7951   -3.1947 C.2         1 GSH       0.0846
      4 O11         5.7037   41.0027   -3.3483 O.co2       1 GSH      -0.5643
      5 O12         7.5068   39.6493   -3.7852 O.co2       1 GSH      -0.5643
      6 CB1         5.8367   37.3843   -2.4026 C.3         1 GSH       0.0193
      7 CG1         7.1006   36.6524   -2.9513 C.3         1 GSH       0.0441
      8 CD1         8.4022   37.1918   -2.5821 C.2         1 GSH       0.1785
      9 OE1         9.2256   37.3482   -3.4776 O.2         1 GSH      -0.3969
     10 N2          8.6922   37.5106   -1.3241 N.am        1 GSH      -0.2648
     11 CA2         9.9185   38.1045   -0.8625 C.3         1 GSH       0.1395
     12 C2          9.9428   37.9751    0.5866 C.2         1 GSH       0.2039
     13 O2          9.6992   38.9377    1.3035 O.2         1 GSH      -0.3944
     14 CB2        10.1127   39.5641   -1.4135 C.3         1 GSH       0.0311
     15 SG2        11.2926   39.6699   -2.7812 S.3         1 GSH      -0.1735
     16 N3         10.0953   36.7641    1.1101 N.am        1 GSH      -0.2722
     17 CA3        10.0394   36.3796    2.4840 C.3         1 GSH       0.0833
     18 C3          9.1687   35.2039    2.6232 C.2         1 GSH       0.0570
     19 O31         9.2217   34.2015    1.7131 O.co2       1 GSH      -0.5669
     20 O32         8.2828   35.1141    3.6469 O.co2       1 GSH      -0.5669
     21 H1          4.4033   38.7111   -0.7042 H           1 GSH       0.2010
     22 H2          3.9179   39.2937   -2.1891 H           1 GSH       0.2010
     23 H3          4.7360   40.2856   -1.1226 H           1 GSH       0.2010
     24 H4          6.6866   39.0251   -1.2802 H           1 GSH       0.1026
     25 H5          5.0283   37.2438   -3.1303 H           1 GSH       0.0363
     26 H6          5.5335   36.8626   -1.4809 H           1 GSH       0.0363
     27 H7          7.0150   36.6118   -4.0489 H           1 GSH       0.0505
     28 H8          7.0656   35.6139   -2.6041 H           1 GSH       0.0505
     29 H9          7.9966   37.3545   -0.6621 H           1 GSH       0.1883
     30 H10        10.7363   37.4810   -1.2462 H           1 GSH       0.0808
     31 H11        10.4603   40.2512   -0.6370 H           1 GSH       0.0422
     32 H12         9.1629   39.9597   -1.7879 H           1 GSH       0.0422
     33 H13        12.3575   39.3281   -1.9945 H           1 GSH       0.1019
     34 H14        10.2182   36.0428    0.4793 H           1 GSH       0.1873
     35 H15         9.6776   37.1855    3.1357 H           1 GSH       0.0689
     36 H16        11.0476   36.1131    2.8112 H           1 GSH       0.0689
@<TRIPOS>BOND
     1     1     2   1
     2     2     3   1
     3     2     6   1
     4     3     4  ar
     5     3     5  ar
     6     6     7   1
     7     7     8   1
     8     8     9   2
     9     8    10  am
    10    10    11   1
    11    11    12   1
    12    11    14   1
    13    12    13   2
    14    12    16  am
    15    14    15   1
    16    16    17   1
    17    17    18   1
    18    18    19  ar
    19    18    20  ar
    20     1    21   1
    21     1    22   1
    22     1    23   1
    23     2    24   1
    24     6    25   1
    25     6    26   1
    26     7    27   1
    27     7    28   1
    28    10    29   1
    29    11    30   1
    30    14    31   1
    31    14    32   1
    32    15    33   1
    33    16    34   1
    34    17    35   1
    35    17    36   1
@<TRIPOS>SUBSTRUCTURE
     1  GSH      2

