@<TRIPOS>MOLECULE
1lbk_ligand_038
    36    35
SMALL
GAST_HUCK
****
This file was generated by PARSER (from files_GN.cpp)

@<TRIPOS>ATOM
      1 N1          5.6180   38.6281   -1.5596 N.4         1 GSH       0.2328
      2 CA1         6.7031   38.2187   -2.4669 C.3         1 GSH       0.0304
      3 C1          6.6104   39.0720   -3.6720 C.2         1 GSH       0.0846
      4 O11         7.6304   39.9095   -3.9838 O.co2       1 GSH      -0.5643
      5 O12         5.4785   39.1267   -4.4038 O.co2       1 GSH      -0.5643
      6 CB1         6.6230   36.7049   -2.8273 C.3         1 GSH       0.0193
      7 CG1         7.0840   35.7565   -1.6838 C.3         1 GSH       0.0441
      8 CD1         8.2693   36.2015   -0.9655 C.2         1 GSH       0.1785
      9 OE1         9.0353   36.9542   -1.5680 O.2         1 GSH      -0.3969
     10 N2          8.3987   35.9343    0.3340 N.am        1 GSH      -0.2648
     11 CA2         9.3774   36.3623    1.3102 C.3         1 GSH       0.1395
     12 C2         10.0285   37.6370    0.9942 C.2         1 GSH       0.2039
     13 O2          9.7366   38.6291    1.6617 O.2         1 GSH      -0.3944
     14 CB2        10.4066   35.2745    1.7351 C.3         1 GSH       0.0311
     15 SG2         9.8423   33.5822    1.4585 S.3         1 GSH      -0.1735
     16 N3         10.9502   37.6994    0.0464 N.am        1 GSH      -0.2722
     17 CA3        11.7276   38.8363   -0.3444 C.3         1 GSH       0.0833
     18 C3         11.2983   39.2999   -1.6717 C.2         1 GSH       0.0570
     19 O31        10.1393   39.9832   -1.7812 O.co2       1 GSH      -0.5669
     20 O32        11.7366   38.6411   -2.7717 O.co2       1 GSH      -0.5669
     21 H1          5.6497   38.0763   -0.7152 H           1 GSH       0.2010
     22 H2          4.7137   38.5151   -2.0136 H           1 GSH       0.2010
     23 H3          5.7609   39.6050   -1.3087 H           1 GSH       0.2010
     24 H4          7.6724   38.4007   -1.9548 H           1 GSH       0.1026
     25 H5          7.2504   36.5169   -3.7061 H           1 GSH       0.0363
     26 H6          5.6001   36.4488   -3.1092 H           1 GSH       0.0363
     27 H7          7.3034   34.7771   -2.1149 H           1 GSH       0.0505
     28 H8          6.2462   35.6197   -0.9930 H           1 GSH       0.0505
     29 H9          7.6977   35.3693    0.7002 H           1 GSH       0.1883
     30 H10         8.7610   36.5218    2.2037 H           1 GSH       0.0808
     31 H11        10.6122   35.3764    2.8025 H           1 GSH       0.0422
     32 H12        11.3453   35.3983    1.2061 H           1 GSH       0.0422
     33 H13        11.0880   33.1407    1.0924 H           1 GSH       0.1019
     34 H14        11.0925   36.8978   -0.4674 H           1 GSH       0.1873
     35 H15        12.7766   38.5426   -0.3775 H           1 GSH       0.0689
     36 H16        11.6529   39.6719    0.3628 H           1 GSH       0.0689
@<TRIPOS>BOND
     1     1     2   1
     2     2     3   1
     3     2     6   1
     4     3     4  ar
     5     3     5  ar
     6     6     7   1
     7     7     8   1
     8     8     9   2
     9     8    10  am
    10    10    11   1
    11    11    12   1
    12    11    14   1
    13    12    13   2
    14    12    16  am
    15    14    15   1
    16    16    17   1
    17    17    18   1
    18    18    19  ar
    19    18    20  ar
    20     1    21   1
    21     1    22   1
    22     1    23   1
    23     2    24   1
    24     6    25   1
    25     6    26   1
    26     7    27   1
    27     7    28   1
    28    10    29   1
    29    11    30   1
    30    14    31   1
    31    14    32   1
    32    15    33   1
    33    16    34   1
    34    17    35   1
    35    17    36   1
@<TRIPOS>SUBSTRUCTURE
     1  GSH      2

