@<TRIPOS>MOLECULE
1lbk_ligand_049
    36    35
SMALL
GAST_HUCK
****
This file was generated by PARSER (from files_GN.cpp)

@<TRIPOS>ATOM
      1 N1          3.5591   34.8351   -0.2222 N.4         1 GSH       0.2328
      2 CA1         4.6421   34.7059   -1.2097 C.3         1 GSH       0.0304
      3 C1          4.1762   33.8512   -2.3221 C.2         1 GSH       0.0846
      4 O11         3.9882   34.3521   -3.5634 O.co2       1 GSH      -0.5643
      5 O12         3.8467   32.5606   -2.1070 O.co2       1 GSH      -0.5643
      6 CB1         5.9323   34.1539   -0.5314 C.3         1 GSH       0.0193
      7 CG1         7.2352   34.3840   -1.3535 C.3         1 GSH       0.0441
      8 CD1         7.7557   35.7334   -1.2220 C.2         1 GSH       0.1785
      9 OE1         8.2851   36.0510   -0.1616 O.2         1 GSH      -0.3969
     10 N2          7.6453   36.6084   -2.2203 N.am        1 GSH      -0.2648
     11 CA2         8.0418   37.9977   -2.2012 C.3         1 GSH       0.1395
     12 C2          6.8892   38.7999   -2.6100 C.2         1 GSH       0.2039
     13 O2          6.9400   39.4895   -3.6232 O.2         1 GSH      -0.3944
     14 CB2         9.3409   38.1537   -3.0548 C.3         1 GSH       0.0311
     15 SG2        10.5290   39.3556   -2.3887 S.3         1 GSH      -0.1735
     16 N3          5.7789   38.7457   -1.8832 N.am        1 GSH      -0.2722
     17 CA3         4.5326   39.3886   -2.1777 C.3         1 GSH       0.0833
     18 C3          4.6162   40.8559   -2.0582 C.2         1 GSH       0.0570
     19 O31         3.9766   41.5042   -1.0569 O.co2       1 GSH      -0.5669
     20 O32         5.2242   41.5970   -3.0163 O.co2       1 GSH      -0.5669
     21 H1          3.8253   35.5195    0.4897 H           1 GSH       0.2010
     22 H2          3.3799   33.9349    0.2242 H           1 GSH       0.2010
     23 H3          2.7071   35.1542   -0.6883 H           1 GSH       0.2010
     24 H4          4.8482   35.7126   -1.5843 H           1 GSH       0.1026
     25 H5          5.8202   33.0818   -0.3609 H           1 GSH       0.0363
     26 H6          6.0516   34.6194    0.4512 H           1 GSH       0.0363
     27 H7          7.0490   34.1398   -2.4033 H           1 GSH       0.0505
     28 H8          8.0107   33.6923   -1.0098 H           1 GSH       0.0505
     29 H9          7.2364   36.2911   -3.0464 H           1 GSH       0.1883
     30 H10         8.3035   38.3055   -1.1871 H           1 GSH       0.0808
     31 H11         9.0956   38.4324   -4.0846 H           1 GSH       0.0422
     32 H12         9.8740   37.1889   -3.0964 H           1 GSH       0.0422
     33 H13         9.5775   40.2524   -2.0099 H           1 GSH       0.1019
     34 H14         5.7866   38.1743   -1.0875 H           1 GSH       0.1873
     35 H15         3.7966   39.0243   -1.4572 H           1 GSH       0.0689
     36 H16         4.1770   39.1200   -3.1755 H           1 GSH       0.0689
@<TRIPOS>BOND
     1     1     2   1
     2     2     3   1
     3     2     6   1
     4     3     4  ar
     5     3     5  ar
     6     6     7   1
     7     7     8   1
     8     8     9   2
     9     8    10  am
    10    10    11   1
    11    11    12   1
    12    11    14   1
    13    12    13   2
    14    12    16  am
    15    14    15   1
    16    16    17   1
    17    17    18   1
    18    18    19  ar
    19    18    20  ar
    20     1    21   1
    21     1    22   1
    22     1    23   1
    23     2    24   1
    24     6    25   1
    25     6    26   1
    26     7    27   1
    27     7    28   1
    28    10    29   1
    29    11    30   1
    30    14    31   1
    31    14    32   1
    32    15    33   1
    33    16    34   1
    34    17    35   1
    35    17    36   1
@<TRIPOS>SUBSTRUCTURE
     1  GSH      2

