@<TRIPOS>MOLECULE
1lbk_ligand_008
    36    35
SMALL
GAST_HUCK
****
This file was generated by PARSER (from files_GN.cpp)

@<TRIPOS>ATOM
      1 N1          6.4445   36.9109   -2.8299 N.4         1 GSH       0.2328
      2 CA1         7.3728   37.9449   -2.3415 C.3         1 GSH       0.0304
      3 C1          7.4414   39.0332   -3.3373 C.2         1 GSH       0.0846
      4 O11         8.3956   39.9849   -3.2588 O.co2       1 GSH      -0.5643
      5 O12         6.3136   39.3945   -3.9894 O.co2       1 GSH      -0.5643
      6 CB1         8.7406   37.2909   -1.9627 C.3         1 GSH       0.0193
      7 CG1         9.7701   38.2603   -1.2859 C.3         1 GSH       0.0441
      8 CD1        10.3090   37.7737   -0.0221 C.2         1 GSH       0.1785
      9 OE1        11.5226   37.7174    0.1413 O.2         1 GSH      -0.3969
     10 N2          9.4614   37.4250    0.9230 N.am        1 GSH      -0.2648
     11 CA2         9.7286   36.9460    2.2502 C.3         1 GSH       0.1395
     12 C2          9.6253   35.5048    2.2542 C.2         1 GSH       0.2039
     13 O2          8.5263   34.9764    2.4386 O.2         1 GSH      -0.3944
     14 CB2         8.7703   37.6843    3.2262 C.3         1 GSH       0.0311
     15 SG2         8.7899   37.0439    4.9137 S.3         1 GSH      -0.1735
     16 N3         10.6945   34.7603    1.9928 N.am        1 GSH      -0.2722
     17 CA3        10.7155   33.3360    1.9080 C.3         1 GSH       0.0833
     18 C3         12.0764   32.8416    2.1584 C.2         1 GSH       0.0570
     19 O31        12.4224   32.3878    3.3877 O.co2       1 GSH      -0.5669
     20 O32        13.0427   32.9747    1.2152 O.co2       1 GSH      -0.5669
     21 H1          6.3445   36.1852   -2.1167 H           1 GSH       0.2010
     22 H2          6.8012   36.4969   -3.7021 H           1 GSH       0.2010
     23 H3          5.5239   37.3338   -3.0124 H           1 GSH       0.2010
     24 H4          6.9243   38.3647   -1.4397 H           1 GSH       0.1026
     25 H5          9.1893   36.8507   -2.8574 H           1 GSH       0.0363
     26 H6          8.5223   36.4583   -1.2892 H           1 GSH       0.0363
     27 H7          9.2950   39.2195   -1.0735 H           1 GSH       0.0505
     28 H8         10.5819   38.4622   -1.9948 H           1 GSH       0.0505
     29 H9          8.5287   37.4576    0.6729 H           1 GSH       0.1883
     30 H10        10.7471   37.2411    2.5298 H           1 GSH       0.0808
     31 H11         7.7497   37.6233    2.8555 H           1 GSH       0.0422
     32 H12         9.0467   38.7379    3.2704 H           1 GSH       0.0422
     33 H13         7.6114   37.6503    5.2429 H           1 GSH       0.1019
     34 H14        11.5420   35.2260    1.8644 H           1 GSH       0.1873
     35 H15        10.4139   33.0259    0.9053 H           1 GSH       0.0689
     36 H16        10.0241   32.8986    2.6383 H           1 GSH       0.0689
@<TRIPOS>BOND
     1     1     2   1
     2     2     3   1
     3     2     6   1
     4     3     4  ar
     5     3     5  ar
     6     6     7   1
     7     7     8   1
     8     8     9   2
     9     8    10  am
    10    10    11   1
    11    11    12   1
    12    11    14   1
    13    12    13   2
    14    12    16  am
    15    14    15   1
    16    16    17   1
    17    17    18   1
    18    18    19  ar
    19    18    20  ar
    20     1    21   1
    21     1    22   1
    22     1    23   1
    23     2    24   1
    24     6    25   1
    25     6    26   1
    26     7    27   1
    27     7    28   1
    28    10    29   1
    29    11    30   1
    30    14    31   1
    31    14    32   1
    32    15    33   1
    33    16    34   1
    34    17    35   1
    35    17    36   1
@<TRIPOS>SUBSTRUCTURE
     1  GSH      2

