@<TRIPOS>MOLECULE
1lbk_ligand_003
    36    35
SMALL
GAST_HUCK
****
This file was generated by PARSER (from files_GN.cpp)

@<TRIPOS>ATOM
      1 N1          7.7889   38.2136   -1.7209 N.4         1 GSH       0.2328
      2 CA1         7.3018   37.6844   -3.0052 C.3         1 GSH       0.0304
      3 C1          8.0383   38.3767   -4.0873 C.2         1 GSH       0.0846
      4 O11         8.9786   37.7277   -4.8215 O.co2       1 GSH      -0.5643
      5 O12         7.7540   39.6791   -4.3784 O.co2       1 GSH      -0.5643
      6 CB1         5.7543   37.8154   -3.2115 C.3         1 GSH       0.0193
      7 CG1         4.9394   38.1278   -1.9179 C.3         1 GSH       0.0441
      8 CD1         3.6568   38.8001   -2.1208 C.2         1 GSH       0.1785
      9 OE1         3.4915   39.5323   -3.1052 O.2         1 GSH      -0.3969
     10 N2          2.7632   38.7240   -1.1324 N.am        1 GSH      -0.2648
     11 CA2         1.5609   39.5108   -1.0086 C.3         1 GSH       0.1395
     12 C2          1.7423   40.5486    0.0006 C.2         1 GSH       0.2039
     13 O2          2.8704   41.0015    0.1847 O.2         1 GSH      -0.3944
     14 CB2         0.3286   38.5705   -0.7298 C.3         1 GSH       0.0311
     15 SG2         0.5605   36.7792   -0.9359 S.3         1 GSH      -0.1735
     16 N3          0.6936   41.1161    0.5738 N.am        1 GSH      -0.2722
     17 CA3         0.7561   42.0470    1.6508 C.3         1 GSH       0.0833
     18 C3          0.5429   43.4363    1.2232 C.2         1 GSH       0.0570
     19 O31         1.0353   44.4206    2.0070 O.co2       1 GSH      -0.5669
     20 O32         0.1175   43.7546   -0.0226 O.co2       1 GSH      -0.5669
     21 H1          7.4234   37.6473   -0.9581 H           1 GSH       0.2010
     22 H2          7.4640   39.1771   -1.5954 H           1 GSH       0.2010
     23 H3          8.8172   38.1866   -1.6951 H           1 GSH       0.2010
     24 H4          7.5662   36.6159   -3.0216 H           1 GSH       0.1026
     25 H5          5.3927   36.8489   -3.6261 H           1 GSH       0.0363
     26 H6          5.5422   38.5965   -3.9805 H           1 GSH       0.0363
     27 H7          5.5466   38.7831   -1.2790 H           1 GSH       0.0505
     28 H8          4.7725   37.1634   -1.3984 H           1 GSH       0.0505
     29 H9          3.0099   38.1622   -0.3834 H           1 GSH       0.1883
     30 H10         1.3446   40.0316   -1.9614 H           1 GSH       0.0808
     31 H11        -0.5017   38.8638   -1.4079 H           1 GSH       0.0422
     32 H12        -0.0204   38.6987    0.3023 H           1 GSH       0.0422
     33 H13         1.0019   36.8873   -2.2348 H           1 GSH       0.1019
     34 H14        -0.1848   40.8147    0.2974 H           1 GSH       0.1873
     35 H15         1.7113   41.9826    2.1881 H           1 GSH       0.0689
     36 H16        -0.0369   41.7909    2.3670 H           1 GSH       0.0689
@<TRIPOS>BOND
     1     1     2   1
     2     2     3   1
     3     2     6   1
     4     3     4  ar
     5     3     5  ar
     6     6     7   1
     7     7     8   1
     8     8     9   2
     9     8    10  am
    10    10    11   1
    11    11    12   1
    12    11    14   1
    13    12    13   2
    14    12    16  am
    15    14    15   1
    16    16    17   1
    17    17    18   1
    18    18    19  ar
    19    18    20  ar
    20     1    21   1
    21     1    22   1
    22     1    23   1
    23     2    24   1
    24     6    25   1
    25     6    26   1
    26     7    27   1
    27     7    28   1
    28    10    29   1
    29    11    30   1
    30    14    31   1
    31    14    32   1
    32    15    33   1
    33    16    34   1
    34    17    35   1
    35    17    36   1
@<TRIPOS>SUBSTRUCTURE
     1  GSH      2

