@<TRIPOS>MOLECULE
1lbk_ligand_062
    36    35
SMALL
GAST_HUCK
****
This file was generated by PARSER (from files_GN.cpp)

@<TRIPOS>ATOM
      1 N1          6.2338   32.4409   -2.1848 N.4         1 GSH       0.2328
      2 CA1         5.8080   33.7821   -1.7487 C.3         1 GSH       0.0304
      3 C1          6.8393   34.3380   -0.8462 C.2         1 GSH       0.0846
      4 O11         7.2426   35.6198   -0.9550 O.co2       1 GSH      -0.5643
      5 O12         7.4204   33.5737    0.1037 O.co2       1 GSH      -0.5643
      6 CB1         4.3859   33.7254   -1.1033 C.3         1 GSH       0.0193
      7 CG1         3.3664   34.7440   -1.6951 C.3         1 GSH       0.0441
      8 CD1         3.5152   36.1471   -1.3515 C.2         1 GSH       0.1785
      9 OE1         4.5999   36.5861   -0.9957 O.2         1 GSH      -0.3969
     10 N2          2.4481   36.9333   -1.4314 N.am        1 GSH      -0.2648
     11 CA2         2.3173   38.3475   -1.2048 C.3         1 GSH       0.1395
     12 C2          3.1411   39.1355   -2.1178 C.2         1 GSH       0.2039
     13 O2          2.6077   40.0721   -2.7068 O.2         1 GSH      -0.3944
     14 CB2         2.4713   38.8163    0.2675 C.3         1 GSH       0.0311
     15 SG2         2.3684   40.6111    0.4567 S.3         1 GSH      -0.1735
     16 N3          4.4533   38.9314   -2.2362 N.am        1 GSH      -0.2722
     17 CA3         5.3275   39.7207   -3.0397 C.3         1 GSH       0.0833
     18 C3          6.6593   39.1067   -3.2372 C.2         1 GSH       0.0570
     19 O31         7.6109   39.7797   -3.9363 O.co2       1 GSH      -0.5669
     20 O32         6.9434   37.8500   -2.8260 O.co2       1 GSH      -0.5669
     21 H1          5.5132   32.0475   -2.8016 H           1 GSH       0.2010
     22 H2          6.3544   31.8291   -1.3725 H           1 GSH       0.2010
     23 H3          7.1158   32.4919   -2.7043 H           1 GSH       0.2010
     24 H4          5.7592   34.3966   -2.6502 H           1 GSH       0.1026
     25 H5          4.4501   33.8495   -0.0199 H           1 GSH       0.0363
     26 H6          3.9382   32.7371   -1.2661 H           1 GSH       0.0363
     27 H7          2.3699   34.4275   -1.3765 H           1 GSH       0.0505
     28 H8          3.4000   34.6517   -2.7843 H           1 GSH       0.0505
     29 H9          1.6348   36.4838   -1.7045 H           1 GSH       0.1883
     30 H10         1.2660   38.5423   -1.4460 H           1 GSH       0.0808
     31 H11         3.4357   38.4959    0.6636 H           1 GSH       0.0422
     32 H12         1.6802   38.3675    0.8702 H           1 GSH       0.0422
     33 H13         3.1691   40.6145    1.5529 H           1 GSH       0.1019
     34 H14         4.8498   38.1926   -1.7478 H           1 GSH       0.1873
     35 H15         5.4528   40.6940   -2.5548 H           1 GSH       0.0689
     36 H16         4.8759   39.8822   -4.0259 H           1 GSH       0.0689
@<TRIPOS>BOND
     1     1     2   1
     2     2     3   1
     3     2     6   1
     4     3     4  ar
     5     3     5  ar
     6     6     7   1
     7     7     8   1
     8     8     9   2
     9     8    10  am
    10    10    11   1
    11    11    12   1
    12    11    14   1
    13    12    13   2
    14    12    16  am
    15    14    15   1
    16    16    17   1
    17    17    18   1
    18    18    19  ar
    19    18    20  ar
    20     1    21   1
    21     1    22   1
    22     1    23   1
    23     2    24   1
    24     6    25   1
    25     6    26   1
    26     7    27   1
    27     7    28   1
    28    10    29   1
    29    11    30   1
    30    14    31   1
    31    14    32   1
    32    15    33   1
    33    16    34   1
    34    17    35   1
    35    17    36   1
@<TRIPOS>SUBSTRUCTURE
     1  GSH      2

