@<TRIPOS>MOLECULE
1lbk_ligand_033
    36    35
SMALL
GAST_HUCK
****
This file was generated by PARSER (from files_GN.cpp)

@<TRIPOS>ATOM
      1 N1          3.3075   34.2999   -1.3465 N.4         1 GSH       0.2328
      2 CA1         3.7336   35.1331   -2.4839 C.3         1 GSH       0.0304
      3 C1          4.9866   34.5840   -3.0424 C.2         1 GSH       0.0846
      4 O11         5.2535   34.7122   -4.3612 O.co2       1 GSH      -0.5643
      5 O12         6.0190   34.2734   -2.2273 O.co2       1 GSH      -0.5643
      6 CB1         3.8811   36.6329   -2.0921 C.3         1 GSH       0.0193
      7 CG1         2.6745   37.2027   -1.2902 C.3         1 GSH       0.0441
      8 CD1         2.6534   38.6550   -1.2561 C.2         1 GSH       0.1785
      9 OE1         1.6191   39.2190   -1.6101 O.2         1 GSH      -0.3969
     10 N2          3.7155   39.3379   -0.8449 N.am        1 GSH      -0.2648
     11 CA2         3.9084   40.7680   -0.7320 C.3         1 GSH       0.1395
     12 C2          2.6730   41.5005   -0.4420 C.2         1 GSH       0.2039
     13 O2          2.0501   42.0015   -1.3715 O.2         1 GSH      -0.3944
     14 CB2         4.8000   41.3990   -1.8659 C.3         1 GSH       0.0311
     15 SG2         5.1976   40.3433   -3.2820 S.3         1 GSH      -0.1735
     16 N3          2.1212   41.4162    0.7648 N.am        1 GSH      -0.2722
     17 CA3         0.8116   41.8673    1.1195 C.3         1 GSH       0.0833
     18 C3          0.6287   43.3061    0.8981 C.2         1 GSH       0.0570
     19 O31         0.2240   43.7744   -0.2990 O.co2       1 GSH      -0.5669
     20 O32         0.9478   44.1895    1.8639 O.co2       1 GSH      -0.5669
     21 H1          2.3773   34.5849   -1.0345 H           1 GSH       0.2010
     22 H2          3.9701   34.4030   -0.5746 H           1 GSH       0.2010
     23 H3          3.2747   33.3189   -1.6344 H           1 GSH       0.2010
     24 H4          2.9597   35.0482   -3.2494 H           1 GSH       0.1026
     25 H5          3.9965   37.2150   -3.0127 H           1 GSH       0.0363
     26 H6          4.7958   36.7623   -1.5024 H           1 GSH       0.0363
     27 H7          2.7152   36.8402   -0.2614 H           1 GSH       0.0505
     28 H8          1.7517   36.8223   -1.7297 H           1 GSH       0.0505
     29 H9          4.4781   38.7981   -0.5979 H           1 GSH       0.1883
     30 H10         4.5116   40.8560    0.1796 H           1 GSH       0.0808
     31 H11         5.7550   41.7097   -1.4412 H           1 GSH       0.0422
     32 H12         4.3605   42.3120   -2.2651 H           1 GSH       0.0422
     33 H13         3.9709   39.7585   -3.3210 H           1 GSH       0.1019
     34 H14         2.6317   40.9487    1.4480 H           1 GSH       0.1873
     35 H15         0.6480   41.6687    2.1776 H           1 GSH       0.0689
     36 H16         0.0610   41.2997    0.5613 H           1 GSH       0.0689
@<TRIPOS>BOND
     1     1     2   1
     2     2     3   1
     3     2     6   1
     4     3     4  ar
     5     3     5  ar
     6     6     7   1
     7     7     8   1
     8     8     9   2
     9     8    10  am
    10    10    11   1
    11    11    12   1
    12    11    14   1
    13    12    13   2
    14    12    16  am
    15    14    15   1
    16    16    17   1
    17    17    18   1
    18    18    19  ar
    19    18    20  ar
    20     1    21   1
    21     1    22   1
    22     1    23   1
    23     2    24   1
    24     6    25   1
    25     6    26   1
    26     7    27   1
    27     7    28   1
    28    10    29   1
    29    11    30   1
    30    14    31   1
    31    14    32   1
    32    15    33   1
    33    16    34   1
    34    17    35   1
    35    17    36   1
@<TRIPOS>SUBSTRUCTURE
     1  GSH      2

