@<TRIPOS>MOLECULE
1lbk_ligand_053
    36    35
SMALL
GAST_HUCK
****
This file was generated by PARSER (from files_GN.cpp)

@<TRIPOS>ATOM
      1 N1          6.0007   34.0875    0.4815 N.4         1 GSH       0.2328
      2 CA1         6.5588   34.0769   -0.8841 C.3         1 GSH       0.0304
      3 C1          7.7942   33.2623   -0.9358 C.2         1 GSH       0.0846
      4 O11         8.4799   32.9231    0.1802 O.co2       1 GSH      -0.5643
      5 O12         8.3096   32.8624   -2.1199 O.co2       1 GSH      -0.5643
      6 CB1         6.7897   35.5483   -1.3474 C.3         1 GSH       0.0193
      7 CG1         6.9553   35.6970   -2.8886 C.3         1 GSH       0.0441
      8 CD1         7.5512   36.9593   -3.2823 C.2         1 GSH       0.1785
      9 OE1         6.8892   37.7501   -3.9326 O.2         1 GSH      -0.3969
     10 N2          8.8253   37.1761   -2.9779 N.am        1 GSH      -0.2648
     11 CA2         9.7406   38.1802   -3.4566 C.3         1 GSH       0.1395
     12 C2         10.7571   38.3484   -2.4271 C.2         1 GSH       0.2039
     13 O2         11.9457   38.3088   -2.7478 O.2         1 GSH      -0.3944
     14 CB2         9.1726   39.5746   -3.8724 C.3         1 GSH       0.0311
     15 SG2         8.6024   39.5813   -5.5925 S.3         1 GSH      -0.1735
     16 N3         10.4040   38.6215   -1.1783 N.am        1 GSH      -0.2722
     17 CA3        11.2979   38.8467   -0.0841 C.3         1 GSH       0.0833
     18 C3         12.2633   39.9329   -0.3109 C.2         1 GSH       0.0570
     19 O31        13.2828   40.1027    0.5553 O.co2       1 GSH      -0.5669
     20 O32        12.1183   40.8160   -1.3238 O.co2       1 GSH      -0.5669
     21 H1          5.1299   34.6243    0.4930 H           1 GSH       0.2010
     22 H2          6.6717   34.5162    1.1252 H           1 GSH       0.2010
     23 H3          5.8055   33.1251    0.7690 H           1 GSH       0.2010
     24 H4          5.8001   33.6075   -1.5189 H           1 GSH       0.1026
     25 H5          7.6677   35.9410   -0.8221 H           1 GSH       0.0363
     26 H6          5.9324   36.1633   -1.0503 H           1 GSH       0.0363
     27 H7          5.9718   35.5755   -3.3465 H           1 GSH       0.0505
     28 H8          7.5822   34.8988   -3.2853 H           1 GSH       0.0505
     29 H9          9.2450   36.4791   -2.4436 H           1 GSH       0.1883
     30 H10        10.2280   37.7411   -4.3361 H           1 GSH       0.0808
     31 H11         9.9467   40.3486   -3.7904 H           1 GSH       0.0422
     32 H12         8.3471   39.8702   -3.2280 H           1 GSH       0.0422
     33 H13         9.1607   40.7998   -5.9001 H           1 GSH       0.1019
     34 H14         9.4484   38.6567   -0.9843 H           1 GSH       0.1873
     35 H15        11.8330   37.9194    0.1387 H           1 GSH       0.0689
     36 H16        10.6919   39.1041    0.7871 H           1 GSH       0.0689
@<TRIPOS>BOND
     1     1     2   1
     2     2     3   1
     3     2     6   1
     4     3     4  ar
     5     3     5  ar
     6     6     7   1
     7     7     8   1
     8     8     9   2
     9     8    10  am
    10    10    11   1
    11    11    12   1
    12    11    14   1
    13    12    13   2
    14    12    16  am
    15    14    15   1
    16    16    17   1
    17    17    18   1
    18    18    19  ar
    19    18    20  ar
    20     1    21   1
    21     1    22   1
    22     1    23   1
    23     2    24   1
    24     6    25   1
    25     6    26   1
    26     7    27   1
    27     7    28   1
    28    10    29   1
    29    11    30   1
    30    14    31   1
    31    14    32   1
    32    15    33   1
    33    16    34   1
    34    17    35   1
    35    17    36   1
@<TRIPOS>SUBSTRUCTURE
     1  GSH      2

