@<TRIPOS>MOLECULE
1lbk_ligand_021
    36    35
SMALL
GAST_HUCK
****
This file was generated by PARSER (from files_GN.cpp)

@<TRIPOS>ATOM
      1 N1         11.3779   33.9077   -6.4898 N.4         1 GSH       0.2328
      2 CA1        11.9715   34.7703   -5.4441 C.3         1 GSH       0.0304
      3 C1         13.0198   34.0310   -4.7099 C.2         1 GSH       0.0846
      4 O11        14.0049   34.7101   -4.0781 O.co2       1 GSH      -0.5643
      5 O12        12.8939   32.7035   -4.4751 O.co2       1 GSH      -0.5643
      6 CB1        10.8897   35.3458   -4.4771 C.3         1 GSH       0.0193
      7 CG1         9.7430   36.1221   -5.1973 C.3         1 GSH       0.0441
      8 CD1         9.2989   37.3128   -4.4969 C.2         1 GSH       0.1785
      9 OE1         9.0631   38.3100   -5.1720 O.2         1 GSH      -0.3969
     10 N2          9.1585   37.3138   -3.1723 N.am        1 GSH      -0.2648
     11 CA2         8.7897   38.4092   -2.3172 C.3         1 GSH       0.1395
     12 C2          7.5106   39.0067   -2.7141 C.2         1 GSH       0.2039
     13 O2          7.4859   39.8468   -3.6082 O.2         1 GSH      -0.3944
     14 CB2         9.9366   39.4725   -2.1863 C.3         1 GSH       0.0311
     15 SG2        11.1381   39.0696   -0.8821 S.3         1 GSH      -0.1735
     16 N3          6.3946   38.6718   -2.0654 N.am        1 GSH      -0.2722
     17 CA3         5.0685   39.1282   -2.3528 C.3         1 GSH       0.0833
     18 C3          4.9499   40.6010   -2.3738 C.2         1 GSH       0.0570
     19 O31         4.1958   41.2474   -1.4475 O.co2       1 GSH      -0.5669
     20 O32         5.4755   41.3272   -3.3928 O.co2       1 GSH      -0.5669
     21 H1         10.7161   34.4606   -7.0441 H           1 GSH       0.2010
     22 H2         10.8920   33.1126   -6.0505 H           1 GSH       0.2010
     23 H3         12.1329   33.5565   -7.1014 H           1 GSH       0.2010
     24 H4         12.4468   35.6184   -5.9597 H           1 GSH       0.1026
     25 H5         11.3899   36.0101   -3.7604 H           1 GSH       0.0363
     26 H6         10.4429   34.5145   -3.9051 H           1 GSH       0.0363
     27 H7          8.8925   35.4470   -5.3180 H           1 GSH       0.0505
     28 H8         10.0871   36.3950   -6.2028 H           1 GSH       0.0505
     29 H9          9.3470   36.4801   -2.7193 H           1 GSH       0.1883
     30 H10         8.6667   37.9793   -1.3143 H           1 GSH       0.0808
     31 H11         9.5306   40.4706   -1.9543 H           1 GSH       0.0422
     32 H12        10.4919   39.5676   -3.1254 H           1 GSH       0.0422
     33 H13        11.9372   40.1392   -1.1861 H           1 GSH       0.1019
     34 H14         6.4608   38.0299   -1.3315 H           1 GSH       0.1873
     35 H15         4.4105   38.7456   -1.5648 H           1 GSH       0.0689
     36 H16         4.7105   38.7176   -3.3026 H           1 GSH       0.0689
@<TRIPOS>BOND
     1     1     2   1
     2     2     3   1
     3     2     6   1
     4     3     4  ar
     5     3     5  ar
     6     6     7   1
     7     7     8   1
     8     8     9   2
     9     8    10  am
    10    10    11   1
    11    11    12   1
    12    11    14   1
    13    12    13   2
    14    12    16  am
    15    14    15   1
    16    16    17   1
    17    17    18   1
    18    18    19  ar
    19    18    20  ar
    20     1    21   1
    21     1    22   1
    22     1    23   1
    23     2    24   1
    24     6    25   1
    25     6    26   1
    26     7    27   1
    27     7    28   1
    28    10    29   1
    29    11    30   1
    30    14    31   1
    31    14    32   1
    32    15    33   1
    33    16    34   1
    34    17    35   1
    35    17    36   1
@<TRIPOS>SUBSTRUCTURE
     1  GSH      2

