@<TRIPOS>MOLECULE
1lol_ligand_062
    35    37
SMALL
GAST_HUCK
****
This file was generated by PARSER (from files_GN.cpp)

@<TRIPOS>ATOM
      1 P          -0.3076   44.9892   51.1897 P.3         1 XMP       0.2008
      2 O1P        -1.3668   45.9028   51.5270 O.co2       1 XMP      -0.5537
      3 O2P         0.8641   45.3313   51.9575 O.co2       1 XMP      -0.5537
      4 O5'        -0.0562   44.9485   49.6563 O.3         1 XMP      -0.2734
      5 O3P        -0.7225   43.6748   51.6198 O.co2       1 XMP      -0.5537
      6 C5'         0.7597   45.9840   49.0709 C.3         1 XMP       0.1072
      7 C4'         2.2571   45.5795   49.0043 C.3         1 XMP       0.1182
      8 O4'         2.3209   44.2672   48.4251 O.3         1 XMP      -0.3363
      9 C1'         3.3071   44.2339   47.3872 C.3         1 XMP       0.2010
     10 N9          2.9977   43.1909   46.4322 N.pl3       1 XMP      -0.1896
     11 C4          2.9445   43.2026   45.0813 C.2         1 XMP       0.2049
     12 N3          3.1754   44.1607   44.1233 N.am        1 XMP      -0.1835
     13 N1          2.6392   42.6644   42.4418 N.am        1 XMP      -0.1870
     14 C2          3.0226   43.8802   42.8292 C.2         1 XMP       0.3214
     15 O2          3.2141   44.7611   42.0045 O.2         1 XMP      -0.3846
     16 C6          2.4136   41.6768   43.3165 C.2         1 XMP       0.1997
     17 O6          2.0433   40.5834   42.9156 O.2         1 XMP      -0.4080
     18 C5          2.5649   41.9224   44.6679 C.2         1 XMP       0.1084
     19 N7          2.4186   41.1526   45.7511 N.2         1 XMP      -0.3331
     20 C8          2.6932   41.9242   46.8086 C.2         1 XMP       0.0923
     21 C2'         3.3557   45.6882   46.8748 C.3         1 XMP       0.1387
     22 O2'         4.6027   46.0106   46.2482 O.3         1 XMP      -0.3836
     23 C3'         3.1164   46.5245   48.1353 C.3         1 XMP       0.1149
     24 O3'         4.3643   46.8407   48.7616 O.3         1 XMP      -0.3864
     25 H1          0.6442   46.9597   49.5561 H           1 XMP       0.0639
     26 H2          0.4004   46.1031   48.0472 H           1 XMP       0.0639
     27 H3          2.6667   45.5384   50.0152 H           1 XMP       0.0650
     28 H4          4.2707   43.9967   47.8456 H           1 XMP       0.0998
     29 H5          3.4448   45.0485   44.3680 H           1 XMP       0.2360
     30 H6          2.4951   42.4971   41.4885 H           1 XMP       0.2254
     31 H7          2.6497   41.5890   47.7698 H           1 XMP       0.1125
     32 H8          2.5223   45.8768   46.1905 H           1 XMP       0.0676
     33 H9          5.0112   45.1412   46.0113 H           1 XMP       0.2101
     34 H10         2.6046   47.4564   47.8794 H           1 XMP       0.0648
     35 H11         4.1531   47.5462   49.4217 H           1 XMP       0.2100
@<TRIPOS>BOND
     1     1     2  ar
     2     1     3  ar
     3     1     4   1
     4     1     5  ar
     5     4     6   1
     6     6     7   1
     7     7     8   1
     8     7    23   1
     9     8     9   1
    10     9    10   1
    11     9    21   1
    12    10    11   1
    13    10    20   1
    14    11    12  am
    15    11    18   2
    16    12    14  am
    17    14    13  am
    18    13    16  am
    19    14    15   2
    20    16    17   2
    21    16    18   1
    22    18    19   1
    23    19    20   2
    24    21    22   1
    25    21    23   1
    26    23    24   1
    27     6    25   1
    28     6    26   1
    29     7    27   1
    30     9    28   1
    31    12    29   1
    32    13    30   1
    33    20    31   1
    34    21    32   1
    35    22    33   1
    36    23    34   1
    37    24    35   1
@<TRIPOS>SUBSTRUCTURE
     1  XMP      6

