@<TRIPOS>MOLECULE
1lol_ligand_036
    35    37
SMALL
GAST_HUCK
****
This file was generated by PARSER (from files_GN.cpp)

@<TRIPOS>ATOM
      1 P           4.9952   35.6161   43.4515 P.3         1 XMP       0.2008
      2 O1P         5.0911   34.1926   43.6403 O.co2       1 XMP      -0.5537
      3 O2P         5.6508   35.9544   42.2130 O.co2       1 XMP      -0.5537
      4 O5'         5.5214   36.3242   44.7345 O.3         1 XMP      -0.2734
      5 O3P         3.5918   35.9078   43.3160 O.co2       1 XMP      -0.5537
      6 C5'         6.5612   37.3185   44.6205 C.3         1 XMP       0.1072
      7 C4'         6.1670   38.6186   43.8524 C.3         1 XMP       0.1182
      8 O4'         4.7406   38.7874   43.8856 O.3         1 XMP      -0.3363
      9 C1'         4.4527   40.1772   44.0101 C.3         1 XMP       0.2010
     10 N9          3.1304   40.3431   44.5403 N.pl3       1 XMP      -0.1896
     11 C4          2.6336   39.8021   45.6677 C.2         1 XMP       0.2049
     12 N3          3.1788   38.9778   46.6149 N.am        1 XMP      -0.1835
     13 N1          1.1655   38.9761   47.7715 N.am        1 XMP      -0.1870
     14 C2          2.4379   38.5804   47.6504 C.2         1 XMP       0.3214
     15 O2          2.9257   37.8440   48.4917 O.2         1 XMP      -0.3846
     16 C6          0.5738   39.7661   46.8696 C.2         1 XMP       0.1997
     17 O6         -0.5926   40.0942   47.0174 O.2         1 XMP      -0.4080
     18 C5          1.3042   40.2007   45.7746 C.2         1 XMP       0.1084
     19 N7          1.0003   40.9638   44.7155 N.2         1 XMP      -0.3331
     20 C8          2.1201   41.0380   43.9710 C.2         1 XMP       0.0923
     21 C2'         5.5873   40.7290   44.8918 C.3         1 XMP       0.1387
     22 O2'         5.7424   42.1408   44.7667 O.3         1 XMP      -0.3836
     23 C3'         6.8045   39.9283   44.4000 C.3         1 XMP       0.1149
     24 O3'         7.5126   40.6332   43.3779 O.3         1 XMP      -0.3864
     25 H1          7.4615   36.8835   44.1748 H           1 XMP       0.0639
     26 H2          6.8150   37.5712   45.6515 H           1 XMP       0.0639
     27 H3          6.4403   38.4886   42.8009 H           1 XMP       0.0650
     28 H4          4.5216   40.6247   43.0109 H           1 XMP       0.0998
     29 H5          4.0994   38.6823   46.5333 H           1 XMP       0.2360
     30 H6          0.6561   38.6763   48.5409 H           1 XMP       0.2254
     31 H7          2.1777   41.5475   43.0872 H           1 XMP       0.1125
     32 H8          5.4060   40.4929   45.9436 H           1 XMP       0.0676
     33 H9          4.9017   42.5217   45.0965 H           1 XMP       0.2101
     34 H10         7.4998   39.7551   45.2257 H           1 XMP       0.0648
     35 H11         8.3131   40.0944   43.1995 H           1 XMP       0.2100
@<TRIPOS>BOND
     1     1     2  ar
     2     1     3  ar
     3     1     4   1
     4     1     5  ar
     5     4     6   1
     6     6     7   1
     7     7     8   1
     8     7    23   1
     9     8     9   1
    10     9    10   1
    11     9    21   1
    12    10    11   1
    13    10    20   1
    14    11    12  am
    15    11    18   2
    16    12    14  am
    17    14    13  am
    18    13    16  am
    19    14    15   2
    20    16    17   2
    21    16    18   1
    22    18    19   1
    23    19    20   2
    24    21    22   1
    25    21    23   1
    26    23    24   1
    27     6    25   1
    28     6    26   1
    29     7    27   1
    30     9    28   1
    31    12    29   1
    32    13    30   1
    33    20    31   1
    34    21    32   1
    35    22    33   1
    36    23    34   1
    37    24    35   1
@<TRIPOS>SUBSTRUCTURE
     1  XMP      6

