@<TRIPOS>MOLECULE
1lol_ligand_080
    35    37
SMALL
GAST_HUCK
****
This file was generated by PARSER (from files_GN.cpp)

@<TRIPOS>ATOM
      1 P           0.0130   42.6861   47.8338 P.3         1 XMP       0.2008
      2 O1P         0.8418   42.1789   46.7625 O.co2       1 XMP      -0.5537
      3 O2P        -1.3159   42.1549   47.6340 O.co2       1 XMP      -0.5537
      4 O5'        -0.1182   44.2290   47.9087 O.3         1 XMP      -0.2734
      5 O3P         0.4743   42.1717   49.1078 O.co2       1 XMP      -0.5537
      6 C5'         0.9755   45.0593   47.4555 C.3         1 XMP       0.1072
      7 C4'         2.2942   44.9711   48.2822 C.3         1 XMP       0.1182
      8 O4'         3.0234   43.7873   47.9229 O.3         1 XMP      -0.3363
      9 C1'         4.0766   44.1256   47.0011 C.3         1 XMP       0.2010
     10 N9          4.0005   43.2720   45.8347 N.pl3       1 XMP      -0.1896
     11 C4          3.6341   43.4907   44.5436 C.2         1 XMP       0.2049
     12 N3          3.1829   44.5820   43.8401 N.am        1 XMP      -0.1835
     13 N1          2.9868   43.3022   41.9086 N.am        1 XMP      -0.1870
     14 C2          2.8657   44.4707   42.5478 C.2         1 XMP       0.3214
     15 O2          2.4457   45.4484   41.9543 O.2         1 XMP      -0.3846
     16 C6          3.4495   42.2078   42.5161 C.2         1 XMP       0.1997
     17 O6          3.5642   41.1709   41.8850 O.2         1 XMP      -0.4080
     18 C5          3.7676   42.2772   43.8660 C.2         1 XMP       0.1084
     19 N7          4.1909   41.3395   44.7169 N.2         1 XMP      -0.3331
     20 C8          4.3164   41.9546   45.9016 C.2         1 XMP       0.0923
     21 C2'         4.0817   45.6691   46.8349 C.3         1 XMP       0.1387
     22 O2'         5.4159   46.1790   46.8112 O.3         1 XMP      -0.3836
     23 C3'         3.2671   46.1501   48.0488 C.3         1 XMP       0.1149
     24 O3'         4.0733   46.3509   49.2125 O.3         1 XMP      -0.3864
     25 H1          0.5956   46.0809   47.5241 H           1 XMP       0.0639
     26 H2          1.1865   44.8714   46.3957 H           1 XMP       0.0639
     27 H3          2.0263   44.9189   49.3400 H           1 XMP       0.0650
     28 H4          5.0064   43.8650   47.5280 H           1 XMP       0.0998
     29 H5          3.0821   45.4397   44.2804 H           1 XMP       0.2360
     30 H6          2.6984   43.2277   40.9812 H           1 XMP       0.2254
     31 H7          4.6237   41.4691   46.7519 H           1 XMP       0.1125
     32 H8          3.5603   45.9930   45.9313 H           1 XMP       0.0676
     33 H9          5.7979   45.8736   45.9590 H           1 XMP       0.2101
     34 H10         2.7402   47.0838   47.8239 H           1 XMP       0.0648
     35 H11         4.2814   47.3123   49.2316 H           1 XMP       0.2100
@<TRIPOS>BOND
     1     1     2  ar
     2     1     3  ar
     3     1     4   1
     4     1     5  ar
     5     4     6   1
     6     6     7   1
     7     7     8   1
     8     7    23   1
     9     8     9   1
    10     9    10   1
    11     9    21   1
    12    10    11   1
    13    10    20   1
    14    11    12  am
    15    11    18   2
    16    12    14  am
    17    14    13  am
    18    13    16  am
    19    14    15   2
    20    16    17   2
    21    16    18   1
    22    18    19   1
    23    19    20   2
    24    21    22   1
    25    21    23   1
    26    23    24   1
    27     6    25   1
    28     6    26   1
    29     7    27   1
    30     9    28   1
    31    12    29   1
    32    13    30   1
    33    20    31   1
    34    21    32   1
    35    22    33   1
    36    23    34   1
    37    24    35   1
@<TRIPOS>SUBSTRUCTURE
     1  XMP      6

