@<TRIPOS>MOLECULE
1lol_ligand_014
    35    37
SMALL
GAST_HUCK
****
This file was generated by PARSER (from files_GN.cpp)

@<TRIPOS>ATOM
      1 P          -0.3623   43.3196   46.2901 P.3         1 XMP       0.2008
      2 O1P         0.4095   42.0952   46.2819 O.co2       1 XMP      -0.5537
      3 O2P        -1.4970   43.1495   45.4121 O.co2       1 XMP      -0.5537
      4 O5'         0.3926   44.6006   45.8373 O.3         1 XMP      -0.2734
      5 O3P        -0.9473   43.5202   47.5930 O.co2       1 XMP      -0.5537
      6 C5'         1.2900   45.2512   46.7715 C.3         1 XMP       0.1072
      7 C4'         2.7739   44.8221   46.6196 C.3         1 XMP       0.1182
      8 O4'         2.9384   43.3988   46.5787 O.3         1 XMP      -0.3363
      9 C1'         4.2315   43.0892   46.0175 C.3         1 XMP       0.2010
     10 N9          4.0948   41.8906   45.2377 N.pl3       1 XMP      -0.1896
     11 C4          3.6921   40.7127   45.7399 C.2         1 XMP       0.2049
     12 N3          3.3238   40.3308   47.0012 N.am        1 XMP      -0.1835
     13 N1          2.8549   38.1899   46.2318 N.am        1 XMP      -0.1870
     14 C2          2.9069   39.0804   47.2291 C.2         1 XMP       0.3214
     15 O2          2.5577   38.7474   48.3540 O.2         1 XMP      -0.3846
     16 C6          3.2008   38.5030   44.9818 C.2         1 XMP       0.1997
     17 O6          3.1154   37.6653   44.0946 O.2         1 XMP      -0.4080
     18 C5          3.6339   39.7898   44.7015 C.2         1 XMP       0.1084
     19 N7          4.0234   40.3994   43.5757 N.2         1 XMP      -0.3331
     20 C8          4.3075   41.6718   43.9192 C.2         1 XMP       0.0923
     21 C2'         4.7270   44.4037   45.3348 C.3         1 XMP       0.1387
     22 O2'         5.7692   45.0118   46.1160 O.3         1 XMP      -0.3836
     23 C3'         3.4701   45.2952   45.3413 C.3         1 XMP       0.1149
     24 O3'         3.7723   46.6852   45.3672 O.3         1 XMP      -0.3864
     25 H1          0.9782   45.1244   47.8251 H           1 XMP       0.0639
     26 H2          1.2229   46.3205   46.5677 H           1 XMP       0.0639
     27 H3          3.3120   45.2023   47.4926 H           1 XMP       0.0650
     28 H4          4.9028   42.8552   46.8481 H           1 XMP       0.0998
     29 H5          3.3496   40.9682   47.7392 H           1 XMP       0.2360
     30 H6          2.5438   37.2939   46.4222 H           1 XMP       0.2254
     31 H7          4.6384   42.3644   43.2362 H           1 XMP       0.1125
     32 H8          5.1082   44.2360   44.3163 H           1 XMP       0.0676
     33 H9          6.2961   45.5517   45.5006 H           1 XMP       0.2101
     34 H10         2.8617   45.0572   44.4609 H           1 XMP       0.0648
     35 H11         3.0842   47.1197   44.7976 H           1 XMP       0.2100
@<TRIPOS>BOND
     1     1     2  ar
     2     1     3  ar
     3     1     4   1
     4     1     5  ar
     5     4     6   1
     6     6     7   1
     7     7     8   1
     8     7    23   1
     9     8     9   1
    10     9    10   1
    11     9    21   1
    12    10    11   1
    13    10    20   1
    14    11    12  am
    15    11    18   2
    16    12    14  am
    17    14    13  am
    18    13    16  am
    19    14    15   2
    20    16    17   2
    21    16    18   1
    22    18    19   1
    23    19    20   2
    24    21    22   1
    25    21    23   1
    26    23    24   1
    27     6    25   1
    28     6    26   1
    29     7    27   1
    30     9    28   1
    31    12    29   1
    32    13    30   1
    33    20    31   1
    34    21    32   1
    35    22    33   1
    36    23    34   1
    37    24    35   1
@<TRIPOS>SUBSTRUCTURE
     1  XMP      6

