@<TRIPOS>MOLECULE
1lol_ligand_003
    35    37
SMALL
GAST_HUCK
****
This file was generated by PARSER (from files_GN.cpp)

@<TRIPOS>ATOM
      1 P           4.7682   35.7405   44.2383 P.3         1 XMP       0.2008
      2 O1P         6.0242   36.3844   43.9438 O.co2       1 XMP      -0.5537
      3 O2P         3.8003   36.0896   43.2258 O.co2       1 XMP      -0.5537
      4 O5'         4.1062   36.1207   45.5976 O.3         1 XMP      -0.2734
      5 O3P         4.9392   34.3147   44.1320 O.co2       1 XMP      -0.5537
      6 C5'         4.2968   37.4734   46.0660 C.3         1 XMP       0.1072
      7 C4'         3.0822   37.9097   46.9197 C.3         1 XMP       0.1182
      8 O4'         3.4159   39.0974   47.6403 O.3         1 XMP      -0.3363
      9 C1'         2.1900   39.7499   48.0038 C.3         1 XMP       0.2010
     10 N9          2.4207   41.1690   48.0318 N.pl3       1 XMP      -0.1896
     11 C4          2.1512   42.0328   49.0257 C.2         1 XMP       0.2049
     12 N3          1.5961   41.8696   50.2685 N.am        1 XMP      -0.1835
     13 N1          1.7717   44.1555   50.6404 N.am        1 XMP      -0.1870
     14 C2          1.4124   42.9338   51.0507 C.2         1 XMP       0.3214
     15 O2          0.9037   42.7923   52.1521 O.2         1 XMP      -0.3846
     16 C6          2.3295   44.3744   49.4454 C.2         1 XMP       0.1997
     17 O6          2.6376   45.5075   49.1104 O.2         1 XMP      -0.4080
     18 C5          2.5349   43.3013   48.5954 C.2         1 XMP       0.1084
     19 N7          3.0505   43.2037   47.3616 N.2         1 XMP      -0.3331
     20 C8          2.9803   41.8967   47.0351 C.2         1 XMP       0.0923
     21 C2'         1.1114   39.3215   46.9766 C.3         1 XMP       0.1387
     22 O2'        -0.0450   38.8221   47.6416 O.3         1 XMP      -0.3836
     23 C3'         1.8218   38.2826   46.1014 C.3         1 XMP       0.1149
     24 O3'         1.0088   37.1555   45.8012 O.3         1 XMP      -0.3864
     25 H1          4.4276   38.2050   45.2580 H           1 XMP       0.0639
     26 H2          5.2034   37.4850   46.6810 H           1 XMP       0.0639
     27 H3          2.8439   37.1211   47.6416 H           1 XMP       0.0650
     28 H4          1.9111   39.3965   49.0046 H           1 XMP       0.0998
     29 H5          1.3402   40.9879   50.5782 H           1 XMP       0.2360
     30 H6          1.6175   44.9148   51.2262 H           1 XMP       0.2254
     31 H7          3.3033   41.5180   46.1399 H           1 XMP       0.1125
     32 H8          0.7778   40.1599   46.3646 H           1 XMP       0.0676
     33 H9         -0.5585   38.3459   46.9598 H           1 XMP       0.2101
     34 H10         2.1066   38.7518   45.1582 H           1 XMP       0.0648
     35 H11         0.1328   37.5156   45.5331 H           1 XMP       0.2100
@<TRIPOS>BOND
     1     1     2  ar
     2     1     3  ar
     3     1     4   1
     4     1     5  ar
     5     4     6   1
     6     6     7   1
     7     7     8   1
     8     7    23   1
     9     8     9   1
    10     9    10   1
    11     9    21   1
    12    10    11   1
    13    10    20   1
    14    11    12  am
    15    11    18   2
    16    12    14  am
    17    14    13  am
    18    13    16  am
    19    14    15   2
    20    16    17   2
    21    16    18   1
    22    18    19   1
    23    19    20   2
    24    21    22   1
    25    21    23   1
    26    23    24   1
    27     6    25   1
    28     6    26   1
    29     7    27   1
    30     9    28   1
    31    12    29   1
    32    13    30   1
    33    20    31   1
    34    21    32   1
    35    22    33   1
    36    23    34   1
    37    24    35   1
@<TRIPOS>SUBSTRUCTURE
     1  XMP      6

