@<TRIPOS>MOLECULE
1lol_ligand_063
    35    37
SMALL
GAST_HUCK
****
This file was generated by PARSER (from files_GN.cpp)

@<TRIPOS>ATOM
      1 P           5.6959   42.3127   42.7412 P.3         1 XMP       0.2008
      2 O1P         4.8156   41.1647   42.7809 O.co2       1 XMP      -0.5537
      3 O2P         6.8855   42.0335   43.5090 O.co2       1 XMP      -0.5537
      4 O5'         4.8839   43.5443   43.2589 O.3         1 XMP      -0.2734
      5 O3P         6.0750   42.5272   41.3664 O.co2       1 XMP      -0.5537
      6 C5'         5.0724   43.9174   44.6414 C.3         1 XMP       0.1072
      7 C4'         3.8365   44.6957   45.1372 C.3         1 XMP       0.1182
      8 O4'         2.6657   43.8828   44.9504 O.3         1 XMP      -0.3363
      9 C1'         1.7164   44.1497   45.9957 C.3         1 XMP       0.2010
     10 N9          1.2278   42.9453   46.6131 N.pl3       1 XMP      -0.1896
     11 C4          1.4491   41.6540   46.2802 C.2         1 XMP       0.2049
     12 N3          2.1669   41.0427   45.2802 N.am        1 XMP      -0.1835
     13 N1          1.4575   38.9591   46.0315 N.am        1 XMP      -0.1870
     14 C2          2.1489   39.7112   45.1661 C.2         1 XMP       0.3214
     15 O2          2.7244   39.1721   44.2324 O.2         1 XMP      -0.3846
     16 C6          0.7566   39.4904   47.0388 C.2         1 XMP       0.1997
     17 O6          0.1285   38.7749   47.8034 O.2         1 XMP      -0.4080
     18 C5          0.7171   40.8657   47.1687 C.2         1 XMP       0.1084
     19 N7          0.0525   41.6657   48.0116 N.2         1 XMP      -0.3331
     20 C8          0.3643   42.9215   47.6550 C.2         1 XMP       0.0923
     21 C2'         2.3952   45.1236   47.0014 C.3         1 XMP       0.1387
     22 O2'         1.8952   46.4552   46.8425 O.3         1 XMP      -0.3836
     23 C3'         3.8858   45.0370   46.6350 C.3         1 XMP       0.1149
     24 O3'         4.6160   46.2453   46.8840 O.3         1 XMP      -0.3864
     25 H1          5.9532   44.5619   44.6991 H           1 XMP       0.0639
     26 H2          5.2201   43.0605   45.3181 H           1 XMP       0.0639
     27 H3          3.7157   45.6150   44.5508 H           1 XMP       0.0650
     28 H4          0.8580   44.6398   45.5286 H           1 XMP       0.0998
     29 H5          2.6541   41.5759   44.6331 H           1 XMP       0.2360
     30 H6          1.4642   37.9933   45.9236 H           1 XMP       0.2254
     31 H7         -0.0153   43.7505   48.1160 H           1 XMP       0.1125
     32 H8          2.2518   44.8286   48.0426 H           1 XMP       0.0676
     33 H9          0.9549   46.4062   47.1264 H           1 XMP       0.2101
     34 H10         4.3535   44.2196   47.2084 H           1 XMP       0.0648
     35 H11         4.5763   46.3690   47.8562 H           1 XMP       0.2100
@<TRIPOS>BOND
     1     1     2  ar
     2     1     3  ar
     3     1     4   1
     4     1     5  ar
     5     4     6   1
     6     6     7   1
     7     7     8   1
     8     7    23   1
     9     8     9   1
    10     9    10   1
    11     9    21   1
    12    10    11   1
    13    10    20   1
    14    11    12  am
    15    11    18   2
    16    12    14  am
    17    14    13  am
    18    13    16  am
    19    14    15   2
    20    16    17   2
    21    16    18   1
    22    18    19   1
    23    19    20   2
    24    21    22   1
    25    21    23   1
    26    23    24   1
    27     6    25   1
    28     6    26   1
    29     7    27   1
    30     9    28   1
    31    12    29   1
    32    13    30   1
    33    20    31   1
    34    21    32   1
    35    22    33   1
    36    23    34   1
    37    24    35   1
@<TRIPOS>SUBSTRUCTURE
     1  XMP      6

