@<TRIPOS>MOLECULE
1lol_ligand_088
    35    37
SMALL
GAST_HUCK
****
This file was generated by PARSER (from files_GN.cpp)

@<TRIPOS>ATOM
      1 P          -0.0153   38.6410   43.1465 P.3         1 XMP       0.2008
      2 O1P        -0.5549   37.3275   42.9047 O.co2       1 XMP      -0.5537
      3 O2P         1.2739   38.4692   43.7640 O.co2       1 XMP      -0.5537
      4 O5'        -0.9890   39.4240   44.0813 O.3         1 XMP      -0.2734
      5 O3P         0.1426   39.2959   41.8701 O.co2       1 XMP      -0.5537
      6 C5'        -0.6413   40.7798   44.4292 C.3         1 XMP       0.1072
      7 C4'        -1.3088   41.1027   45.7943 C.3         1 XMP       0.1182
      8 O4'        -0.5174   40.6220   46.8872 O.3         1 XMP      -0.3363
      9 C1'         0.3779   41.6626   47.3207 C.3         1 XMP       0.2010
     10 N9          1.7464   41.3008   47.0073 N.pl3       1 XMP      -0.1896
     11 C4          2.7021   41.8347   46.2074 C.2         1 XMP       0.2049
     12 N3          2.7561   42.8980   45.3339 N.am        1 XMP      -0.1835
     13 N1          4.9780   42.4497   44.8475 N.am        1 XMP      -0.1870
     14 C2          3.8773   43.1852   44.6750 C.2         1 XMP       0.3214
     15 O2          3.8993   44.1293   43.9010 O.2         1 XMP      -0.3846
     16 C6          5.0077   41.3997   45.6699 C.2         1 XMP       0.1997
     17 O6          6.0331   40.7441   45.7866 O.2         1 XMP      -0.4080
     18 C5          3.8553   41.0604   46.3676 C.2         1 XMP       0.1084
     19 N7          3.6080   40.0681   47.2302 N.2         1 XMP      -0.3331
     20 C8          2.3281   40.2285   47.6039 C.2         1 XMP       0.0923
     21 C2'        -0.2221   43.0064   46.8256 C.3         1 XMP       0.1387
     22 O2'        -0.4586   43.9299   47.8908 O.3         1 XMP      -0.3836
     23 C3'        -1.5157   42.5974   46.1016 C.3         1 XMP       0.1149
     24 O3'        -2.6720   42.7667   46.9255 O.3         1 XMP      -0.3864
     25 H1         -1.0453   41.4387   43.6551 H           1 XMP       0.0639
     26 H2          0.4390   40.9449   44.5032 H           1 XMP       0.0639
     27 H3         -2.2789   40.5981   45.8202 H           1 XMP       0.0650
     28 H4          0.3010   41.6646   48.4137 H           1 XMP       0.0998
     29 H5          1.9804   43.4408   45.1609 H           1 XMP       0.2360
     30 H6          5.7817   42.6850   44.3541 H           1 XMP       0.2254
     31 H7          1.8690   39.6052   48.2749 H           1 XMP       0.1125
     32 H8          0.4105   43.5121   46.1087 H           1 XMP       0.0676
     33 H9          0.4269   44.1215   48.2656 H           1 XMP       0.2101
     34 H10        -1.6605   43.1853   45.1879 H           1 XMP       0.0648
     35 H11        -2.9123   43.7097   46.8064 H           1 XMP       0.2100
@<TRIPOS>BOND
     1     1     2  ar
     2     1     3  ar
     3     1     4   1
     4     1     5  ar
     5     4     6   1
     6     6     7   1
     7     7     8   1
     8     7    23   1
     9     8     9   1
    10     9    10   1
    11     9    21   1
    12    10    11   1
    13    10    20   1
    14    11    12  am
    15    11    18   2
    16    12    14  am
    17    14    13  am
    18    13    16  am
    19    14    15   2
    20    16    17   2
    21    16    18   1
    22    18    19   1
    23    19    20   2
    24    21    22   1
    25    21    23   1
    26    23    24   1
    27     6    25   1
    28     6    26   1
    29     7    27   1
    30     9    28   1
    31    12    29   1
    32    13    30   1
    33    20    31   1
    34    21    32   1
    35    22    33   1
    36    23    34   1
    37    24    35   1
@<TRIPOS>SUBSTRUCTURE
     1  XMP      6

