@<TRIPOS>MOLECULE
1lol_ligand_039
    35    37
SMALL
GAST_HUCK
****
This file was generated by PARSER (from files_GN.cpp)

@<TRIPOS>ATOM
      1 P          -0.9894   39.6768   41.8567 P.3         1 XMP       0.2008
      2 O1P        -0.2007   39.6509   40.6519 O.co2       1 XMP      -0.5537
      3 O2P        -2.3537   39.8982   41.4481 O.co2       1 XMP      -0.5537
      4 O5'        -0.4470   40.8362   42.7425 O.3         1 XMP      -0.2734
      5 O3P        -0.8511   38.3838   42.4773 O.co2       1 XMP      -0.5537
      6 C5'        -0.9322   40.9568   44.0992 C.3         1 XMP       0.1072
      7 C4'         0.1629   40.5314   45.1123 C.3         1 XMP       0.1182
      8 O4'         1.3181   41.3653   44.9698 O.3         1 XMP      -0.3363
      9 C1'         2.0980   41.1705   46.1565 C.3         1 XMP       0.2010
     10 N9          3.0766   42.2088   46.2857 N.pl3       1 XMP      -0.1896
     11 C4          2.8512   43.5241   46.4531 C.2         1 XMP       0.2049
     12 N3          1.7006   44.2523   46.5714 N.am        1 XMP      -0.1835
     13 N1          2.9584   46.1773   46.8889 N.am        1 XMP      -0.1870
     14 C2          1.7735   45.5624   46.8116 C.2         1 XMP       0.3214
     15 O2          0.7477   46.2017   46.9784 O.2         1 XMP      -0.3846
     16 C6          4.1144   45.5229   46.7525 C.2         1 XMP       0.1997
     17 O6          5.1717   46.1249   46.8528 O.2         1 XMP      -0.4080
     18 C5          4.0895   44.1533   46.5452 C.2         1 XMP       0.1084
     19 N7          5.0488   43.2303   46.3982 N.2         1 XMP      -0.3331
     20 C8          4.4181   42.0532   46.2382 C.2         1 XMP       0.0923
     21 C2'         1.0772   41.0854   47.3167 C.3         1 XMP       0.1387
     22 O2'         1.4955   40.1450   48.3060 O.3         1 XMP      -0.3836
     23 C3'        -0.2361   40.6972   46.6010 C.3         1 XMP       0.1149
     24 O3'        -0.8200   39.5342   47.1803 O.3         1 XMP      -0.3864
     25 H1         -1.8555   40.3967   44.2866 H           1 XMP       0.0639
     26 H2         -1.1577   42.0090   44.2664 H           1 XMP       0.0639
     27 H3          0.4499   39.4905   44.9114 H           1 XMP       0.0650
     28 H4          2.6043   40.2006   46.0632 H           1 XMP       0.0998
     29 H5          0.8373   43.8150   46.5082 H           1 XMP       0.2360
     30 H6          2.9793   47.1303   47.0701 H           1 XMP       0.2254
     31 H7          4.9065   41.1655   46.0943 H           1 XMP       0.1125
     32 H8          0.9386   42.0458   47.8187 H           1 XMP       0.0676
     33 H9          2.3023   40.5323   48.7060 H           1 XMP       0.2101
     34 H10        -0.9537   41.5174   46.6960 H           1 XMP       0.0648
     35 H11        -1.0583   38.9500   46.4363 H           1 XMP       0.2100
@<TRIPOS>BOND
     1     1     2  ar
     2     1     3  ar
     3     1     4   1
     4     1     5  ar
     5     4     6   1
     6     6     7   1
     7     7     8   1
     8     7    23   1
     9     8     9   1
    10     9    10   1
    11     9    21   1
    12    10    11   1
    13    10    20   1
    14    11    12  am
    15    11    18   2
    16    12    14  am
    17    14    13  am
    18    13    16  am
    19    14    15   2
    20    16    17   2
    21    16    18   1
    22    18    19   1
    23    19    20   2
    24    21    22   1
    25    21    23   1
    26    23    24   1
    27     6    25   1
    28     6    26   1
    29     7    27   1
    30     9    28   1
    31    12    29   1
    32    13    30   1
    33    20    31   1
    34    21    32   1
    35    22    33   1
    36    23    34   1
    37    24    35   1
@<TRIPOS>SUBSTRUCTURE
     1  XMP      6

