@<TRIPOS>MOLECULE
1lol_ligand_034
    35    37
SMALL
GAST_HUCK
****
This file was generated by PARSER (from files_GN.cpp)

@<TRIPOS>ATOM
      1 P           4.8404   35.6178   43.9768 P.3         1 XMP       0.2008
      2 O1P         6.0904   36.2342   43.6041 O.co2       1 XMP      -0.5537
      3 O2P         3.8588   35.8947   42.9560 O.co2       1 XMP      -0.5537
      4 O5'         4.3513   36.0645   45.3931 O.3         1 XMP      -0.2734
      5 O3P         5.0559   34.1901   43.9707 O.co2       1 XMP      -0.5537
      6 C5'         3.8282   37.4151   45.4680 C.3         1 XMP       0.1072
      7 C4'         3.5114   37.8019   46.9399 C.3         1 XMP       0.1182
      8 O4'         3.8655   39.1739   47.1993 O.3         1 XMP      -0.3363
      9 C1'         2.6976   40.0163   47.0985 C.3         1 XMP       0.2010
     10 N9          2.8299   41.0688   46.1285 N.pl3       1 XMP      -0.1896
     11 C4          3.8800   41.3584   45.3334 C.2         1 XMP       0.2049
     12 N3          5.1086   40.7736   45.1797 N.am        1 XMP      -0.1835
     13 N1          5.6414   42.3115   43.5268 N.am        1 XMP      -0.1870
     14 C2          5.9685   41.2581   44.2840 C.2         1 XMP       0.3214
     15 O2          7.0601   40.7260   44.1426 O.2         1 XMP      -0.3846
     16 C6          4.4602   42.9270   43.6316 C.2         1 XMP       0.1997
     17 O6          4.2099   43.8918   42.9257 O.2         1 XMP      -0.4080
     18 C5          3.5398   42.4651   44.5612 C.2         1 XMP       0.1084
     19 N7          2.3041   42.8568   44.8993 N.2         1 XMP      -0.3331
     20 C8          1.8901   42.0008   45.8525 C.2         1 XMP       0.0923
     21 C2'         1.4908   39.0857   46.8416 C.3         1 XMP       0.1387
     22 O2'         0.3063   39.4927   47.5294 O.3         1 XMP      -0.3836
     23 C3'         2.0134   37.7294   47.3279 C.3         1 XMP       0.1149
     24 O3'         1.8838   37.5899   48.7465 O.3         1 XMP      -0.3864
     25 H1          2.9304   37.5135   44.8537 H           1 XMP       0.0639
     26 H2          4.5664   38.1410   45.1000 H           1 XMP       0.0639
     27 H3          4.1143   37.1899   47.6239 H           1 XMP       0.0650
     28 H4          2.5845   40.4815   48.0793 H           1 XMP       0.0998
     29 H5          5.3726   40.0268   45.7397 H           1 XMP       0.2360
     30 H6          6.2822   42.6374   42.8733 H           1 XMP       0.2254
     31 H7          0.9796   42.0672   46.3082 H           1 XMP       0.1125
     32 H8          1.2546   39.0292   45.7779 H           1 XMP       0.0676
     33 H9         -0.0415   40.2706   47.0072 H           1 XMP       0.2101
     34 H10         1.5109   36.8949   46.8390 H           1 XMP       0.0648
     35 H11         1.3144   38.3476   49.0348 H           1 XMP       0.2100
@<TRIPOS>BOND
     1     1     2  ar
     2     1     3  ar
     3     1     4   1
     4     1     5  ar
     5     4     6   1
     6     6     7   1
     7     7     8   1
     8     7    23   1
     9     8     9   1
    10     9    10   1
    11     9    21   1
    12    10    11   1
    13    10    20   1
    14    11    12  am
    15    11    18   2
    16    12    14  am
    17    14    13  am
    18    13    16  am
    19    14    15   2
    20    16    17   2
    21    16    18   1
    22    18    19   1
    23    19    20   2
    24    21    22   1
    25    21    23   1
    26    23    24   1
    27     6    25   1
    28     6    26   1
    29     7    27   1
    30     9    28   1
    31    12    29   1
    32    13    30   1
    33    20    31   1
    34    21    32   1
    35    22    33   1
    36    23    34   1
    37    24    35   1
@<TRIPOS>SUBSTRUCTURE
     1  XMP      6

