@<TRIPOS>MOLECULE
1lol_ligand_017
    35    37
SMALL
GAST_HUCK
****
This file was generated by PARSER (from files_GN.cpp)

@<TRIPOS>ATOM
      1 P           3.4721   46.0483   48.8143 P.3         1 XMP       0.2008
      2 O1P         2.9817   47.3172   48.2952 O.co2       1 XMP      -0.5537
      3 O2P         4.7483   45.8271   48.1885 O.co2       1 XMP      -0.5537
      4 O5'         2.3331   45.0583   48.4817 O.3         1 XMP      -0.2734
      5 O3P         3.6327   46.2533   50.2457 O.co2       1 XMP      -0.5537
      6 C5'         2.6786   43.7070   48.0990 C.3         1 XMP       0.1072
      7 C4'         1.6108   43.2639   47.0858 C.3         1 XMP       0.1182
      8 O4'         1.9107   41.9716   46.5449 O.3         1 XMP      -0.3363
      9 C1'         0.7420   41.6219   45.7845 C.3         1 XMP       0.2010
     10 N9          0.7201   40.2142   45.5245 N.pl3       1 XMP      -0.1896
     11 C4          0.3563   39.6070   44.3803 C.2         1 XMP       0.2049
     12 N3         -0.1473   40.0752   43.1968 N.am        1 XMP      -0.1835
     13 N1         -0.1995   37.9095   42.3549 N.am        1 XMP      -0.1870
     14 C2         -0.4230   39.2200   42.2065 C.2         1 XMP       0.3214
     15 O2         -0.8863   39.6372   41.1530 O.2         1 XMP      -0.3846
     16 C6          0.2860   37.3892   43.4845 C.2         1 XMP       0.1997
     17 O6          0.5225   36.1949   43.5696 O.2         1 XMP      -0.4080
     18 C5          0.5679   38.2419   44.5445 C.2         1 XMP       0.1084
     19 N7          1.0263   38.0221   45.7821 N.2         1 XMP      -0.3331
     20 C8          1.1003   39.2307   46.3681 C.2         1 XMP       0.0923
     21 C2'        -0.4668   42.1452   46.6015 C.3         1 XMP       0.1387
     22 O2'        -1.4437   42.7467   45.7334 O.3         1 XMP      -0.3836
     23 C3'         0.1729   43.1053   47.6300 C.3         1 XMP       0.1149
     24 O3'        -0.4745   44.3670   47.7572 O.3         1 XMP      -0.3864
     25 H1          2.6969   43.0264   48.9536 H           1 XMP       0.0639
     26 H2          3.6549   43.6350   47.6105 H           1 XMP       0.0639
     27 H3          1.6148   44.0045   46.2724 H           1 XMP       0.0650
     28 H4          0.8101   42.1605   44.8340 H           1 XMP       0.0998
     29 H5         -0.3305   41.0227   43.0800 H           1 XMP       0.2360
     30 H6         -0.3864   37.3155   41.6116 H           1 XMP       0.2254
     31 H7          1.4372   39.3667   47.3226 H           1 XMP       0.1125
     32 H8         -0.9459   41.3384   47.1478 H           1 XMP       0.0676
     33 H9         -1.6412   43.6478   46.0636 H           1 XMP       0.2101
     34 H10         0.2102   42.6292   48.6222 H           1 XMP       0.0648
     35 H11        -0.0664   44.9509   47.0694 H           1 XMP       0.2100
@<TRIPOS>BOND
     1     1     2  ar
     2     1     3  ar
     3     1     4   1
     4     1     5  ar
     5     4     6   1
     6     6     7   1
     7     7     8   1
     8     7    23   1
     9     8     9   1
    10     9    10   1
    11     9    21   1
    12    10    11   1
    13    10    20   1
    14    11    12  am
    15    11    18   2
    16    12    14  am
    17    14    13  am
    18    13    16  am
    19    14    15   2
    20    16    17   2
    21    16    18   1
    22    18    19   1
    23    19    20   2
    24    21    22   1
    25    21    23   1
    26    23    24   1
    27     6    25   1
    28     6    26   1
    29     7    27   1
    30     9    28   1
    31    12    29   1
    32    13    30   1
    33    20    31   1
    34    21    32   1
    35    22    33   1
    36    23    34   1
    37    24    35   1
@<TRIPOS>SUBSTRUCTURE
     1  XMP      6

