@<TRIPOS>MOLECULE
1lol_ligand_082
    35    37
SMALL
GAST_HUCK
****
This file was generated by PARSER (from files_GN.cpp)

@<TRIPOS>ATOM
      1 P           3.8119   37.8419   45.4641 P.3         1 XMP       0.2008
      2 O1P         3.9373   37.9867   44.0337 O.co2       1 XMP      -0.5537
      3 O2P         3.9881   36.4564   45.8294 O.co2       1 XMP      -0.5537
      4 O5'         2.4769   38.3890   46.0313 O.3         1 XMP      -0.2734
      5 O3P         4.8840   38.5851   46.0799 O.co2       1 XMP      -0.5537
      6 C5'         1.2624   38.2562   45.2612 C.3         1 XMP       0.1072
      7 C4'         0.8740   39.6141   44.6190 C.3         1 XMP       0.1182
      8 O4'        -0.4001   39.4572   43.9727 O.3         1 XMP      -0.3363
      9 C1'        -1.2716   40.5494   44.3140 C.3         1 XMP       0.2010
     10 N9         -2.6500   40.1567   44.1424 N.pl3       1 XMP      -0.1896
     11 C4         -3.7264   40.3183   44.9413 C.2         1 XMP       0.2049
     12 N3         -3.9178   40.8968   46.1689 N.am        1 XMP      -0.1835
     13 N1         -6.1575   40.2872   46.1316 N.am        1 XMP      -0.1870
     14 C2         -5.1222   40.8697   46.7430 C.2         1 XMP       0.3214
     15 O2         -5.2760   41.3688   47.8456 O.2         1 XMP      -0.3846
     16 C6         -6.0462   39.7251   44.9264 C.2         1 XMP       0.1997
     17 O6         -7.0121   39.1772   44.4200 O.2         1 XMP      -0.4080
     18 C5         -4.8160   39.7405   44.2899 C.2         1 XMP       0.1084
     19 N7         -4.4169   39.2671   43.1051 N.2         1 XMP      -0.3331
     20 C8         -3.1052   39.5417   43.0250 C.2         1 XMP       0.0923
     21 C2'        -0.8048   40.9522   45.7260 C.3         1 XMP       0.1387
     22 O2'        -1.1994   42.2638   46.1217 O.3         1 XMP      -0.3836
     23 C3'         0.7192   40.7822   45.6309 C.3         1 XMP       0.1149
     24 O3'         1.3413   41.9755   45.1423 O.3         1 XMP      -0.3864
     25 H1          0.4716   37.9631   45.9534 H           1 XMP       0.0639
     26 H2          1.2985   37.4844   44.4849 H           1 XMP       0.0639
     27 H3          1.6201   39.8652   43.8532 H           1 XMP       0.0650
     28 H4         -1.0702   41.3744   43.6214 H           1 XMP       0.0998
     29 H5         -3.1777   41.3190   46.6293 H           1 XMP       0.2360
     30 H6         -7.0164   40.2688   46.5843 H           1 XMP       0.2254
     31 H7         -2.5320   39.2822   42.2199 H           1 XMP       0.1125
     32 H8         -1.1953   40.2370   46.4570 H           1 XMP       0.0676
     33 H9         -0.8280   42.8693   45.4446 H           1 XMP       0.2101
     34 H10         1.1479   40.5579   46.6118 H           1 XMP       0.0648
     35 H11         2.3050   41.7888   45.1449 H           1 XMP       0.2100
@<TRIPOS>BOND
     1     1     2  ar
     2     1     3  ar
     3     1     4   1
     4     1     5  ar
     5     4     6   1
     6     6     7   1
     7     7     8   1
     8     7    23   1
     9     8     9   1
    10     9    10   1
    11     9    21   1
    12    10    11   1
    13    10    20   1
    14    11    12  am
    15    11    18   2
    16    12    14  am
    17    14    13  am
    18    13    16  am
    19    14    15   2
    20    16    17   2
    21    16    18   1
    22    18    19   1
    23    19    20   2
    24    21    22   1
    25    21    23   1
    26    23    24   1
    27     6    25   1
    28     6    26   1
    29     7    27   1
    30     9    28   1
    31    12    29   1
    32    13    30   1
    33    20    31   1
    34    21    32   1
    35    22    33   1
    36    23    34   1
    37    24    35   1
@<TRIPOS>SUBSTRUCTURE
     1  XMP      6

