@<TRIPOS>MOLECULE
1lol_ligand_068
    35    37
SMALL
GAST_HUCK
****
This file was generated by PARSER (from files_GN.cpp)

@<TRIPOS>ATOM
      1 P           4.8659   35.4639   42.7453 P.3         1 XMP       0.2008
      2 O1P         4.9610   34.1389   43.3096 O.co2       1 XMP      -0.5537
      3 O2P         6.1830   36.0619   42.6853 O.co2       1 XMP      -0.5537
      4 O5'         3.8062   36.3321   43.4759 O.3         1 XMP      -0.2734
      5 O3P         4.4216   35.3019   41.3797 O.co2       1 XMP      -0.5537
      6 C5'         4.1194   36.8541   44.7860 C.3         1 XMP       0.1072
      7 C4'         5.0639   38.0853   44.7306 C.3         1 XMP       0.1182
      8 O4'         4.6192   39.0150   43.7366 O.3         1 XMP      -0.3363
      9 C1'         5.2658   40.2714   44.0120 C.3         1 XMP       0.2010
     10 N9          4.3760   41.3509   43.6807 N.pl3       1 XMP      -0.1896
     11 C4          4.6739   42.4753   43.0052 C.2         1 XMP       0.2049
     12 N3          5.8311   42.9406   42.4365 N.am        1 XMP      -0.1835
     13 N1          4.7325   44.8811   41.7872 N.am        1 XMP      -0.1870
     14 C2          5.8409   44.1331   41.8388 C.2         1 XMP       0.3214
     15 O2          6.8728   44.5446   41.3333 O.2         1 XMP      -0.3846
     16 C6          3.5760   44.4821   42.3177 C.2         1 XMP       0.1997
     17 O6          2.5892   45.2018   42.2496 O.2         1 XMP      -0.4080
     18 C5          3.5166   43.2512   42.9523 C.2         1 XMP       0.1084
     19 N7          2.5329   42.5945   43.5801 N.2         1 XMP      -0.3331
     20 C8          3.0701   41.4384   44.0175 C.2         1 XMP       0.0923
     21 C2'         5.6864   40.2571   45.5071 C.3         1 XMP       0.1387
     22 O2'         7.1099   40.3118   45.6175 O.3         1 XMP      -0.3836
     23 C3'         5.1155   38.9225   46.0200 C.3         1 XMP       0.1149
     24 O3'         5.8990   38.3231   47.0504 O.3         1 XMP      -0.3864
     25 H1          4.5402   36.0939   45.4530 H           1 XMP       0.0639
     26 H2          3.1684   37.1665   45.2178 H           1 XMP       0.0639
     27 H3          6.0758   37.7464   44.4816 H           1 XMP       0.0650
     28 H4          6.1580   40.3190   43.3757 H           1 XMP       0.0998
     29 H5          6.6379   42.4030   42.4649 H           1 XMP       0.2360
     30 H6          4.7731   45.7481   41.3480 H           1 XMP       0.2254
     31 H7          2.5484   40.7299   44.5377 H           1 XMP       0.1125
     32 H8          5.2671   41.0970   46.0669 H           1 XMP       0.0676
     33 H9          7.2998   40.2816   46.5808 H           1 XMP       0.2101
     34 H10         4.1063   39.0910   46.4073 H           1 XMP       0.0648
     35 H11         5.4076   37.5175   47.3137 H           1 XMP       0.2100
@<TRIPOS>BOND
     1     1     2  ar
     2     1     3  ar
     3     1     4   1
     4     1     5  ar
     5     4     6   1
     6     6     7   1
     7     7     8   1
     8     7    23   1
     9     8     9   1
    10     9    10   1
    11     9    21   1
    12    10    11   1
    13    10    20   1
    14    11    12  am
    15    11    18   2
    16    12    14  am
    17    14    13  am
    18    13    16  am
    19    14    15   2
    20    16    17   2
    21    16    18   1
    22    18    19   1
    23    19    20   2
    24    21    22   1
    25    21    23   1
    26    23    24   1
    27     6    25   1
    28     6    26   1
    29     7    27   1
    30     9    28   1
    31    12    29   1
    32    13    30   1
    33    20    31   1
    34    21    32   1
    35    22    33   1
    36    23    34   1
    37    24    35   1
@<TRIPOS>SUBSTRUCTURE
     1  XMP      6

