@<TRIPOS>MOLECULE
1lol_ligand_013
    35    37
SMALL
GAST_HUCK
****
This file was generated by PARSER (from files_GN.cpp)

@<TRIPOS>ATOM
      1 P           5.1472   41.1322   43.5792 P.3         1 XMP       0.2008
      2 O1P         5.0115   41.4975   42.1930 O.co2       1 XMP      -0.5537
      3 O2P         5.1589   39.6957   43.6817 O.co2       1 XMP      -0.5537
      4 O5'         4.0212   41.8036   44.4259 O.3         1 XMP      -0.2734
      5 O3P         6.4297   41.6106   44.0273 O.co2       1 XMP      -0.5537
      6 C5'         2.6916   41.2380   44.3525 C.3         1 XMP       0.1072
      7 C4'         2.4583   40.1982   45.4880 C.3         1 XMP       0.1182
      8 O4'         2.5711   40.8560   46.7588 O.3         1 XMP      -0.3363
      9 C1'         1.2558   41.1163   47.2841 C.3         1 XMP       0.2010
     10 N9          1.0006   42.5049   47.5673 N.pl3       1 XMP      -0.1896
     11 C4          1.8501   43.5528   47.5430 C.2         1 XMP       0.2049
     12 N3          3.1907   43.6727   47.2767 N.am        1 XMP      -0.1835
     13 N1          3.0925   45.9432   47.7644 N.am        1 XMP      -0.1870
     14 C2          3.7880   44.8614   47.3972 C.2         1 XMP       0.3214
     15 O2          4.9876   44.9633   47.1989 O.2         1 XMP      -0.3846
     16 C6          1.7843   45.8965   48.0237 C.2         1 XMP       0.1997
     17 O6          1.1939   46.9087   48.3674 O.2         1 XMP      -0.4080
     18 C5          1.1278   44.6812   47.9317 C.2         1 XMP       0.1084
     19 N7         -0.1338   44.3197   48.1922 N.2         1 XMP      -0.3331
     20 C8         -0.1919   42.9960   47.9751 C.2         1 XMP       0.0923
     21 C2'         0.2297   40.4976   46.3012 C.3         1 XMP       0.1387
     22 O2'        -0.8483   39.8858   47.0073 O.3         1 XMP      -0.3836
     23 C3'         1.0725   39.5161   45.4808 C.3         1 XMP       0.1149
     24 O3'         1.1286   38.2313   46.1074 O.3         1 XMP      -0.3864
     25 H1          2.4632   40.7978   43.3753 H           1 XMP       0.0639
     26 H2          1.9970   42.0675   44.4940 H           1 XMP       0.0639
     27 H3          3.2343   39.4317   45.4215 H           1 XMP       0.0650
     28 H4          1.2052   40.5783   48.2360 H           1 XMP       0.0998
     29 H5          3.7092   42.8931   47.0225 H           1 XMP       0.2360
     30 H6          3.5565   46.7908   47.8568 H           1 XMP       0.2254
     31 H7         -1.0443   42.4465   48.1045 H           1 XMP       0.1125
     32 H8         -0.1791   41.2608   45.6326 H           1 XMP       0.0676
     33 H9         -1.3290   39.3473   46.3495 H           1 XMP       0.2101
     34 H10         0.6779   39.3905   44.4689 H           1 XMP       0.0648
     35 H11         0.2127   37.8773   46.0500 H           1 XMP       0.2100
@<TRIPOS>BOND
     1     1     2  ar
     2     1     3  ar
     3     1     4   1
     4     1     5  ar
     5     4     6   1
     6     6     7   1
     7     7     8   1
     8     7    23   1
     9     8     9   1
    10     9    10   1
    11     9    21   1
    12    10    11   1
    13    10    20   1
    14    11    12  am
    15    11    18   2
    16    12    14  am
    17    14    13  am
    18    13    16  am
    19    14    15   2
    20    16    17   2
    21    16    18   1
    22    18    19   1
    23    19    20   2
    24    21    22   1
    25    21    23   1
    26    23    24   1
    27     6    25   1
    28     6    26   1
    29     7    27   1
    30     9    28   1
    31    12    29   1
    32    13    30   1
    33    20    31   1
    34    21    32   1
    35    22    33   1
    36    23    34   1
    37    24    35   1
@<TRIPOS>SUBSTRUCTURE
     1  XMP      6

