@<TRIPOS>MOLECULE
1lol_ligand_072
    35    37
SMALL
GAST_HUCK
****
This file was generated by PARSER (from files_GN.cpp)

@<TRIPOS>ATOM
      1 P          -1.6678   41.8790   47.0108 P.3         1 XMP       0.2008
      2 O1P        -1.3931   43.0597   47.7929 O.co2       1 XMP      -0.5537
      3 O2P        -2.8913   41.3388   47.5476 O.co2       1 XMP      -0.5537
      4 O5'        -0.5445   40.8015   47.1399 O.3         1 XMP      -0.2734
      5 O3P        -1.9694   42.2834   45.6583 O.co2       1 XMP      -0.5537
      6 C5'         0.5336   40.8030   46.1707 C.3         1 XMP       0.1072
      7 C4'         1.5289   41.9940   46.2358 C.3         1 XMP       0.1182
      8 O4'         0.8784   43.2152   46.6085 O.3         1 XMP      -0.3363
      9 C1'         1.9185   44.1295   47.0128 C.3         1 XMP       0.2010
     10 N9          1.3973   45.0183   48.0184 N.pl3       1 XMP      -0.1896
     11 C4          0.8121   44.6695   49.1824 C.2         1 XMP       0.2049
     12 N3          0.5802   43.4545   49.7700 N.am        1 XMP      -0.1835
     13 N1         -0.5163   44.5127   51.5184 N.am        1 XMP      -0.1870
     14 C2         -0.0827   43.3970   50.9203 C.2         1 XMP       0.3214
     15 O2         -0.3085   42.3168   51.4439 O.2         1 XMP      -0.3846
     16 C6         -0.2962   45.7274   51.0104 C.2         1 XMP       0.1997
     17 O6         -0.7362   46.7180   51.5815 O.2         1 XMP      -0.4080
     18 C5          0.3909   45.8375   49.8108 C.2         1 XMP       0.1084
     19 N7          0.7305   46.8843   49.0438 N.2         1 XMP      -0.3331
     20 C8          1.3444   46.3668   47.9620 C.2         1 XMP       0.0923
     21 C2'         3.1355   43.2819   47.4840 C.3         1 XMP       0.1387
     22 O2'         4.2996   43.5975   46.7257 O.3         1 XMP      -0.3836
     23 C3'         2.6736   41.8274   47.2602 C.3         1 XMP       0.1149
     24 O3'         3.7094   40.9657   46.7787 O.3         1 XMP      -0.3864
     25 H1          0.1582   40.7066   45.1484 H           1 XMP       0.0639
     26 H2          1.1069   39.8921   46.3684 H           1 XMP       0.0639
     27 H3          1.9723   42.1153   45.2378 H           1 XMP       0.0650
     28 H4          2.1985   44.7140   46.1262 H           1 XMP       0.0998
     29 H5          0.8825   42.6405   49.3393 H           1 XMP       0.2360
     30 H6         -1.0095   44.4429   52.3535 H           1 XMP       0.2254
     31 H7          1.6999   46.9341   47.1883 H           1 XMP       0.1125
     32 H8          3.3674   43.4439   48.5441 H           1 XMP       0.0676
     33 H9          4.3856   44.5740   46.7913 H           1 XMP       0.2101
     34 H10         2.2821   41.4198   48.2006 H           1 XMP       0.0648
     35 H11         3.3272   40.0622   46.8198 H           1 XMP       0.2100
@<TRIPOS>BOND
     1     1     2  ar
     2     1     3  ar
     3     1     4   1
     4     1     5  ar
     5     4     6   1
     6     6     7   1
     7     7     8   1
     8     7    23   1
     9     8     9   1
    10     9    10   1
    11     9    21   1
    12    10    11   1
    13    10    20   1
    14    11    12  am
    15    11    18   2
    16    12    14  am
    17    14    13  am
    18    13    16  am
    19    14    15   2
    20    16    17   2
    21    16    18   1
    22    18    19   1
    23    19    20   2
    24    21    22   1
    25    21    23   1
    26    23    24   1
    27     6    25   1
    28     6    26   1
    29     7    27   1
    30     9    28   1
    31    12    29   1
    32    13    30   1
    33    20    31   1
    34    21    32   1
    35    22    33   1
    36    23    34   1
    37    24    35   1
@<TRIPOS>SUBSTRUCTURE
     1  XMP      6

