@<TRIPOS>MOLECULE
1lol_ligand_011
    35    37
SMALL
GAST_HUCK
****
This file was generated by PARSER (from files_GN.cpp)

@<TRIPOS>ATOM
      1 P           4.5128   35.7291   44.1893 P.3         1 XMP       0.2008
      2 O1P         5.7635   36.4466   44.1786 O.co2       1 XMP      -0.5537
      3 O2P         3.8627   35.9248   42.9151 O.co2       1 XMP      -0.5537
      4 O5'         3.6368   36.1934   45.3861 O.3         1 XMP      -0.2734
      5 O3P         4.7921   34.3162   44.2789 O.co2       1 XMP      -0.5537
      6 C5'         2.7945   37.3451   45.1499 C.3         1 XMP       0.1072
      7 C4'         2.1691   37.8563   46.4777 C.3         1 XMP       0.1182
      8 O4'         3.1058   38.6263   47.2406 O.3         1 XMP      -0.3363
      9 C1'         2.9861   40.0223   46.8740 C.3         1 XMP       0.2010
     10 N9          4.1329   40.4756   46.1202 N.pl3       1 XMP      -0.1896
     11 C4          4.2294   41.5601   45.3218 C.2         1 XMP       0.2049
     12 N3          3.3293   42.5148   44.9375 N.am        1 XMP      -0.1835
     13 N1          4.9222   43.4817   43.5592 N.am        1 XMP      -0.1870
     14 C2          3.6806   43.4489   44.0570 C.2         1 XMP       0.3214
     15 O2          2.8659   44.2801   43.6895 O.2         1 XMP      -0.3846
     16 C6          5.8624   42.6008   43.9227 C.2         1 XMP       0.1997
     17 O6          6.9808   42.6703   43.4437 O.2         1 XMP      -0.4080
     18 C5          5.5272   41.5949   44.8152 C.2         1 XMP       0.1084
     19 N7          6.2167   40.5667   45.3232 N.2         1 XMP      -0.3331
     20 C8          5.3629   39.9018   46.1187 C.2         1 XMP       0.0923
     21 C2'         1.6110   40.1723   46.1624 C.3         1 XMP       0.1387
     22 O2'         0.7960   41.2003   46.7373 O.3         1 XMP      -0.3836
     23 C3'         0.9551   38.7931   46.2921 C.3         1 XMP       0.1149
     24 O3'         0.0828   38.7559   47.4231 O.3         1 XMP      -0.3864
     25 H1          1.9821   37.0457   44.4781 H           1 XMP       0.0639
     26 H2          3.3412   38.1687   44.6756 H           1 XMP       0.0639
     27 H3          1.8723   36.9833   47.0698 H           1 XMP       0.0650
     28 H4          2.9739   40.5858   47.8131 H           1 XMP       0.0998
     29 H5          2.4262   42.5056   45.2740 H           1 XMP       0.2360
     30 H6          5.1588   44.1765   42.9166 H           1 XMP       0.2254
     31 H7          5.6265   39.0704   46.6539 H           1 XMP       0.1125
     32 H8          1.7433   40.3931   45.0994 H           1 XMP       0.0676
     33 H9          1.4162   41.8961   47.0505 H           1 XMP       0.2101
     34 H10         0.3801   38.5540   45.3953 H           1 XMP       0.0648
     35 H11        -0.7016   38.2650   47.1113 H           1 XMP       0.2100
@<TRIPOS>BOND
     1     1     2  ar
     2     1     3  ar
     3     1     4   1
     4     1     5  ar
     5     4     6   1
     6     6     7   1
     7     7     8   1
     8     7    23   1
     9     8     9   1
    10     9    10   1
    11     9    21   1
    12    10    11   1
    13    10    20   1
    14    11    12  am
    15    11    18   2
    16    12    14  am
    17    14    13  am
    18    13    16  am
    19    14    15   2
    20    16    17   2
    21    16    18   1
    22    18    19   1
    23    19    20   2
    24    21    22   1
    25    21    23   1
    26    23    24   1
    27     6    25   1
    28     6    26   1
    29     7    27   1
    30     9    28   1
    31    12    29   1
    32    13    30   1
    33    20    31   1
    34    21    32   1
    35    22    33   1
    36    23    34   1
    37    24    35   1
@<TRIPOS>SUBSTRUCTURE
     1  XMP      6

