@<TRIPOS>MOLECULE
1lol_ligand_085
    35    37
SMALL
GAST_HUCK
****
This file was generated by PARSER (from files_GN.cpp)

@<TRIPOS>ATOM
      1 P           3.6789   42.2906   42.4834 P.3         1 XMP       0.2008
      2 O1P         2.9827   43.5256   42.2232 O.co2       1 XMP      -0.5537
      3 O2P         3.5552   41.4312   41.3327 O.co2       1 XMP      -0.5537
      4 O5'         3.0987   41.4619   43.6676 O.3         1 XMP      -0.2734
      5 O3P         5.0846   42.5277   42.6810 O.co2       1 XMP      -0.5537
      6 C5'         2.9828   42.0981   44.9564 C.3         1 XMP       0.1072
      7 C4'         2.8114   41.0201   46.0592 C.3         1 XMP       0.1182
      8 O4'         2.6356   41.6835   47.3183 O.3         1 XMP      -0.3363
      9 C1'         1.3615   41.3350   47.8799 C.3         1 XMP       0.2010
     10 N9          0.7747   42.5227   48.4388 N.pl3       1 XMP      -0.1896
     11 C4          0.5502   42.7993   49.7390 C.2         1 XMP       0.2049
     12 N3          0.7695   42.1047   50.8999 N.am        1 XMP      -0.1835
     13 N1         -0.0586   43.8916   52.1338 N.am        1 XMP      -0.1870
     14 C2          0.4617   42.6610   52.0742 C.2         1 XMP       0.3214
     15 O2          0.6636   42.0464   53.1085 O.2         1 XMP      -0.3846
     16 C6         -0.2880   44.6230   51.0401 C.2         1 XMP       0.1997
     17 O6         -0.7555   45.7451   51.1440 O.2         1 XMP      -0.4080
     18 C5          0.0264   44.0913   49.8031 C.2         1 XMP       0.1084
     19 N7         -0.0424   44.5905   48.5645 N.2         1 XMP      -0.3331
     20 C8          0.4235   43.6308   47.7472 C.2         1 XMP       0.0923
     21 C2'         0.5308   40.6549   46.7644 C.3         1 XMP       0.1387
     22 O2'        -0.3742   39.6765   47.2810 O.3         1 XMP      -0.3836
     23 C3'         1.6186   40.0525   45.8661 C.3         1 XMP       0.1149
     24 O3'         1.9604   38.7336   46.2965 O.3         1 XMP      -0.3864
     25 H1          2.1213   42.7734   44.9535 H           1 XMP       0.0639
     26 H2          3.8740   42.6830   45.2172 H           1 XMP       0.0639
     27 H3          3.7475   40.4544   46.1114 H           1 XMP       0.0650
     28 H4          1.5494   40.5949   48.6661 H           1 XMP       0.0998
     29 H5          1.1703   41.2199   50.8717 H           1 XMP       0.2360
     30 H6         -0.2691   44.2696   53.0005 H           1 XMP       0.2254
     31 H7          0.5042   43.7439   46.7347 H           1 XMP       0.1125
     32 H8         -0.0418   41.3883   46.1899 H           1 XMP       0.0676
     33 H9         -0.7307   39.1957   46.5032 H           1 XMP       0.2101
     34 H10         1.2802   40.0013   44.8261 H           1 XMP       0.0648
     35 H11         2.6909   38.4540   45.7077 H           1 XMP       0.2100
@<TRIPOS>BOND
     1     1     2  ar
     2     1     3  ar
     3     1     4   1
     4     1     5  ar
     5     4     6   1
     6     6     7   1
     7     7     8   1
     8     7    23   1
     9     8     9   1
    10     9    10   1
    11     9    21   1
    12    10    11   1
    13    10    20   1
    14    11    12  am
    15    11    18   2
    16    12    14  am
    17    14    13  am
    18    13    16  am
    19    14    15   2
    20    16    17   2
    21    16    18   1
    22    18    19   1
    23    19    20   2
    24    21    22   1
    25    21    23   1
    26    23    24   1
    27     6    25   1
    28     6    26   1
    29     7    27   1
    30     9    28   1
    31    12    29   1
    32    13    30   1
    33    20    31   1
    34    21    32   1
    35    22    33   1
    36    23    34   1
    37    24    35   1
@<TRIPOS>SUBSTRUCTURE
     1  XMP      6

