@<TRIPOS>MOLECULE
1lol_ligand_022
    35    37
SMALL
GAST_HUCK
****
This file was generated by PARSER (from files_GN.cpp)

@<TRIPOS>ATOM
      1 P           1.5387   40.8916   48.9150 P.3         1 XMP       0.2008
      2 O1P         0.2723   41.0341   48.2470 O.co2       1 XMP      -0.5537
      3 O2P         2.5152   41.6738   48.1989 O.co2       1 XMP      -0.5537
      4 O5'         1.8463   39.3747   49.0789 O.3         1 XMP      -0.2734
      5 O3P         1.3749   41.4800   50.2228 O.co2       1 XMP      -0.5537
      6 C5'         3.0882   38.8447   48.5683 C.3         1 XMP       0.1072
      7 C4'         3.1134   38.7355   47.0229 C.3         1 XMP       0.1182
      8 O4'         4.3311   38.1150   46.5782 O.3         1 XMP      -0.3363
      9 C1'         4.1124   37.4981   45.2940 C.3         1 XMP       0.2010
     10 N9          4.7709   36.2225   45.2018 N.pl3       1 XMP      -0.1896
     11 C4          5.7080   35.7060   46.0220 C.2         1 XMP       0.2049
     12 N3          6.3051   36.1640   47.1665 N.am        1 XMP      -0.1835
     13 N1          7.6365   34.2661   47.2545 N.am        1 XMP      -0.1870
     14 C2          7.2580   35.4462   47.7616 C.2         1 XMP       0.3214
     15 O2          7.7777   35.8578   48.7866 O.2         1 XMP      -0.3846
     16 C6          7.0930   33.7635   46.1453 C.2         1 XMP       0.1997
     17 O6          7.4826   32.6862   45.7165 O.2         1 XMP      -0.4080
     18 C5          6.0959   34.4761   45.4970 C.2         1 XMP       0.1084
     19 N7          5.3829   34.2371   44.3889 N.2         1 XMP      -0.3331
     20 C8          4.5973   35.3141   44.2103 C.2         1 XMP       0.0923
     21 C2'         2.5732   37.4624   45.0732 C.3         1 XMP       0.1387
     22 O2'         2.2222   38.3786   44.0281 O.3         1 XMP      -0.3836
     23 C3'         1.9931   37.8584   46.4397 C.3         1 XMP       0.1149
     24 O3'         0.7568   38.5633   46.3748 O.3         1 XMP      -0.3864
     25 H1          3.2018   37.8376   48.9697 H           1 XMP       0.0639
     26 H2          3.9464   39.4214   48.9213 H           1 XMP       0.0639
     27 H3          3.0711   39.7417   46.5889 H           1 XMP       0.0650
     28 H4          4.5809   38.1459   44.5466 H           1 XMP       0.0998
     29 H5          6.0351   37.0113   47.5574 H           1 XMP       0.2360
     30 H6          8.3372   33.7684   47.7024 H           1 XMP       0.2254
     31 H7          3.9532   35.4130   43.4200 H           1 XMP       0.1125
     32 H8          2.2015   36.4717   44.7948 H           1 XMP       0.0676
     33 H9          1.3111   38.7074   44.2393 H           1 XMP       0.2101
     34 H10         1.8670   36.9566   47.0503 H           1 XMP       0.0648
     35 H11         0.0768   37.9289   46.0661 H           1 XMP       0.2100
@<TRIPOS>BOND
     1     1     2  ar
     2     1     3  ar
     3     1     4   1
     4     1     5  ar
     5     4     6   1
     6     6     7   1
     7     7     8   1
     8     7    23   1
     9     8     9   1
    10     9    10   1
    11     9    21   1
    12    10    11   1
    13    10    20   1
    14    11    12  am
    15    11    18   2
    16    12    14  am
    17    14    13  am
    18    13    16  am
    19    14    15   2
    20    16    17   2
    21    16    18   1
    22    18    19   1
    23    19    20   2
    24    21    22   1
    25    21    23   1
    26    23    24   1
    27     6    25   1
    28     6    26   1
    29     7    27   1
    30     9    28   1
    31    12    29   1
    32    13    30   1
    33    20    31   1
    34    21    32   1
    35    22    33   1
    36    23    34   1
    37    24    35   1
@<TRIPOS>SUBSTRUCTURE
     1  XMP      6

