@<TRIPOS>MOLECULE
1lol_ligand_001
    35    37
SMALL
GAST_HUCK
****
This file was generated by PARSER (from files_GN.cpp)

@<TRIPOS>ATOM
      1 P           5.0143   35.5805   44.2439 P.3         1 XMP       0.2008
      2 O1P         3.8486   36.0170   43.5195 O.co2       1 XMP      -0.5537
      3 O2P         5.1399   34.1872   43.8818 O.co2       1 XMP      -0.5537
      4 O5'         4.8275   35.6006   45.7952 O.3         1 XMP      -0.2734
      5 O3P         6.1961   36.2686   43.7862 O.co2       1 XMP      -0.5537
      6 C5'         4.5988   36.8597   46.4639 C.3         1 XMP       0.1072
      7 C4'         3.1524   37.3910   46.2395 C.3         1 XMP       0.1182
      8 O4'         2.5034   37.8665   47.4283 O.3         1 XMP      -0.3363
      9 C1'         1.3616   38.6427   46.9950 C.3         1 XMP       0.2010
     10 N9          1.1687   39.8335   47.7790 N.pl3       1 XMP      -0.1896
     11 C4          0.1962   40.7365   47.5617 C.2         1 XMP       0.2049
     12 N3         -0.8269   40.7563   46.6587 N.am        1 XMP      -0.1835
     13 N1         -1.3139   42.9385   47.2743 N.am        1 XMP      -0.1870
     14 C2         -1.5491   41.8660   46.5156 C.2         1 XMP       0.3214
     15 O2         -2.4265   41.9070   45.6710 O.2         1 XMP      -0.3846
     16 C6         -0.3810   42.9410   48.2324 C.2         1 XMP       0.1997
     17 O6         -0.2114   43.9416   48.9092 O.2         1 XMP      -0.4080
     18 C5          0.4263   41.8261   48.3926 C.2         1 XMP       0.1084
     19 N7          1.4967   41.5545   49.1536 N.2         1 XMP      -0.3331
     20 C8          1.9261   40.3304   48.7805 C.2         1 XMP       0.0923
     21 C2'         1.5974   38.9923   45.4941 C.3         1 XMP       0.1387
     22 O2'         0.7562   38.2099   44.6378 O.3         1 XMP      -0.3836
     23 C3'         3.0714   38.6237   45.3223 C.3         1 XMP       0.1149
     24 O3'         3.4431   38.3968   43.9671 O.3         1 XMP      -0.3864
     25 H1          5.3598   37.6060   46.2051 H           1 XMP       0.0639
     26 H2          4.7171   36.6519   47.5275 H           1 XMP       0.0639
     27 H3          2.5460   36.5689   45.8373 H           1 XMP       0.0650
     28 H4          0.4720   38.0158   47.1057 H           1 XMP       0.0998
     29 H5         -1.0259   39.9663   46.1305 H           1 XMP       0.2360
     30 H6         -1.8334   43.7452   47.1035 H           1 XMP       0.2254
     31 H7          2.7535   39.8777   49.1776 H           1 XMP       0.1125
     32 H8          1.4479   40.0470   45.2487 H           1 XMP       0.0676
     33 H9         -0.1390   38.2299   45.0501 H           1 XMP       0.2101
     34 H10         3.7016   39.4264   45.7272 H           1 XMP       0.0648
     35 H11         4.4238   38.4226   43.9660 H           1 XMP       0.2100
@<TRIPOS>BOND
     1     1     2  ar
     2     1     3  ar
     3     1     4   1
     4     1     5  ar
     5     4     6   1
     6     6     7   1
     7     7     8   1
     8     7    23   1
     9     8     9   1
    10     9    10   1
    11     9    21   1
    12    10    11   1
    13    10    20   1
    14    11    12  am
    15    11    18   2
    16    12    14  am
    17    14    13  am
    18    13    16  am
    19    14    15   2
    20    16    17   2
    21    16    18   1
    22    18    19   1
    23    19    20   2
    24    21    22   1
    25    21    23   1
    26    23    24   1
    27     6    25   1
    28     6    26   1
    29     7    27   1
    30     9    28   1
    31    12    29   1
    32    13    30   1
    33    20    31   1
    34    21    32   1
    35    22    33   1
    36    23    34   1
    37    24    35   1
@<TRIPOS>SUBSTRUCTURE
     1  XMP      6

