@<TRIPOS>MOLECULE
1lol_ligand_024
    35    37
SMALL
GAST_HUCK
****
This file was generated by PARSER (from files_GN.cpp)

@<TRIPOS>ATOM
      1 P           4.6027   35.8230   43.8195 P.3         1 XMP       0.2008
      2 O1P         4.2837   34.8435   42.7936 O.co2       1 XMP      -0.5537
      3 O2P         4.4905   35.1251   45.0855 O.co2       1 XMP      -0.5537
      4 O5'         3.5609   36.9710   43.6994 O.3         1 XMP      -0.2734
      5 O3P         5.9621   36.2780   43.6144 O.co2       1 XMP      -0.5537
      6 C5'         3.2540   37.7843   44.8468 C.3         1 XMP       0.1072
      7 C4'         1.7006   37.9191   44.9290 C.3         1 XMP       0.1182
      8 O4'         1.2658   37.9258   46.3046 O.3         1 XMP      -0.3363
      9 C1'         0.9061   39.2613   46.7013 C.3         1 XMP       0.2010
     10 N9          1.6225   39.6869   47.8703 N.pl3       1 XMP      -0.1896
     11 C4          1.3693   40.7955   48.5901 C.2         1 XMP       0.2049
     12 N3          0.4298   41.7807   48.4628 N.am        1 XMP      -0.1835
     13 N1          1.3184   42.8707   50.3117 N.am        1 XMP      -0.1870
     14 C2          0.4221   42.8028   49.3216 C.2         1 XMP       0.3214
     15 O2         -0.4127   43.6825   49.1958 O.2         1 XMP      -0.3846
     16 C6          2.2545   41.9350   50.4926 C.2         1 XMP       0.1997
     17 O6          3.0626   42.0493   51.4011 O.2         1 XMP      -0.4080
     18 C5          2.3022   40.8571   49.6227 C.2         1 XMP       0.1084
     19 N7          3.1039   39.7874   49.5391 N.2         1 XMP      -0.3331
     20 C8          2.6721   39.0824   48.4758 C.2         1 XMP       0.0923
     21 C2'         1.1273   40.1823   45.4769 C.3         1 XMP       0.1387
     22 O2'         0.1522   41.2135   45.3238 O.3         1 XMP      -0.3836
     23 C3'         1.1123   39.2015   44.2946 C.3         1 XMP       0.1149
     24 O3'        -0.2177   38.9877   43.8202 O.3         1 XMP      -0.3864
     25 H1          3.7190   38.7664   44.7191 H           1 XMP       0.0639
     26 H2          3.6272   37.3536   45.7769 H           1 XMP       0.0639
     27 H3          1.2479   37.0355   44.4660 H           1 XMP       0.0650
     28 H4         -0.1584   39.2204   46.9404 H           1 XMP       0.0998
     29 H5         -0.2271   41.7388   47.7499 H           1 XMP       0.2360
     30 H6          1.2902   43.6294   50.9164 H           1 XMP       0.2254
     31 H7          3.1071   38.2079   48.1753 H           1 XMP       0.1125
     32 H8          2.1160   40.6522   45.5277 H           1 XMP       0.0676
     33 H9          0.5818   42.0390   45.6326 H           1 XMP       0.2101
     34 H10         1.7137   39.5730   43.4697 H           1 XMP       0.0648
     35 H11        -0.1323   38.3165   43.1059 H           1 XMP       0.2100
@<TRIPOS>BOND
     1     1     2  ar
     2     1     3  ar
     3     1     4   1
     4     1     5  ar
     5     4     6   1
     6     6     7   1
     7     7     8   1
     8     7    23   1
     9     8     9   1
    10     9    10   1
    11     9    21   1
    12    10    11   1
    13    10    20   1
    14    11    12  am
    15    11    18   2
    16    12    14  am
    17    14    13  am
    18    13    16  am
    19    14    15   2
    20    16    17   2
    21    16    18   1
    22    18    19   1
    23    19    20   2
    24    21    22   1
    25    21    23   1
    26    23    24   1
    27     6    25   1
    28     6    26   1
    29     7    27   1
    30     9    28   1
    31    12    29   1
    32    13    30   1
    33    20    31   1
    34    21    32   1
    35    22    33   1
    36    23    34   1
    37    24    35   1
@<TRIPOS>SUBSTRUCTURE
     1  XMP      6

