@<TRIPOS>MOLECULE
1lol_ligand_047
    35    37
SMALL
GAST_HUCK
****
This file was generated by PARSER (from files_GN.cpp)

@<TRIPOS>ATOM
      1 P           3.0290   37.2527   45.0854 P.3         1 XMP       0.2008
      2 O1P         1.9554   37.7060   45.9313 O.co2       1 XMP      -0.5537
      3 O2P         3.9626   36.4664   45.8492 O.co2       1 XMP      -0.5537
      4 O5'         3.7267   38.4193   44.3242 O.3         1 XMP      -0.2734
      5 O3P         2.4485   36.3822   44.0965 O.co2       1 XMP      -0.5537
      6 C5'         4.3961   39.3903   45.1557 C.3         1 XMP       0.1072
      7 C4'         4.6969   40.6675   44.3209 C.3         1 XMP       0.1182
      8 O4'         3.5518   41.1164   43.5833 O.3         1 XMP      -0.3363
      9 C1'         2.8289   42.0938   44.3586 C.3         1 XMP       0.2010
     10 N9          1.4965   41.6359   44.6714 N.pl3       1 XMP      -0.1896
     11 C4          0.6792   42.0735   45.6488 C.2         1 XMP       0.2049
     12 N3          0.8451   42.9749   46.6665 N.am        1 XMP      -0.1835
     13 N1         -1.3002   42.5151   47.4316 N.am        1 XMP      -0.1870
     14 C2         -0.1421   43.1730   47.5421 C.2         1 XMP       0.3214
     15 O2          0.0125   43.9570   48.4628 O.2         1 XMP      -0.3846
     16 C6         -1.5419   41.6634   46.4344 C.2         1 XMP       0.1997
     17 O6         -2.6368   41.1278   46.3482 O.2         1 XMP      -0.4080
     18 C5         -0.5359   41.4037   45.5175 C.2         1 XMP       0.1084
     19 N7         -0.4625   40.5835   44.4635 N.2         1 XMP      -0.3331
     20 C8          0.7770   40.7296   43.9651 C.2         1 XMP       0.0923
     21 C2'         3.7263   42.4544   45.5699 C.3         1 XMP       0.1387
     22 O2'         3.7669   43.8563   45.8336 O.3         1 XMP      -0.3836
     23 C3'         5.1000   41.8859   45.1734 C.3         1 XMP       0.1149
     24 O3'         5.8409   42.8096   44.3701 O.3         1 XMP      -0.3864
     25 H1          5.3535   38.9940   45.5197 H           1 XMP       0.0639
     26 H2          3.7735   39.6522   46.0217 H           1 XMP       0.0639
     27 H3          5.4863   40.4202   43.6031 H           1 XMP       0.0650
     28 H4          2.7319   42.9782   43.7231 H           1 XMP       0.0998
     29 H5          1.6798   43.4558   46.7607 H           1 XMP       0.2360
     30 H6         -1.9870   42.6481   48.1066 H           1 XMP       0.2254
     31 H7          1.1046   40.2249   43.1385 H           1 XMP       0.1125
     32 H8          3.3648   41.9508   46.4716 H           1 XMP       0.0676
     33 H9          4.2282   43.9351   46.6949 H           1 XMP       0.2101
     34 H10         5.6981   41.6084   46.0473 H           1 XMP       0.0648
     35 H11         5.6971   43.6878   44.7795 H           1 XMP       0.2100
@<TRIPOS>BOND
     1     1     2  ar
     2     1     3  ar
     3     1     4   1
     4     1     5  ar
     5     4     6   1
     6     6     7   1
     7     7     8   1
     8     7    23   1
     9     8     9   1
    10     9    10   1
    11     9    21   1
    12    10    11   1
    13    10    20   1
    14    11    12  am
    15    11    18   2
    16    12    14  am
    17    14    13  am
    18    13    16  am
    19    14    15   2
    20    16    17   2
    21    16    18   1
    22    18    19   1
    23    19    20   2
    24    21    22   1
    25    21    23   1
    26    23    24   1
    27     6    25   1
    28     6    26   1
    29     7    27   1
    30     9    28   1
    31    12    29   1
    32    13    30   1
    33    20    31   1
    34    21    32   1
    35    22    33   1
    36    23    34   1
    37    24    35   1
@<TRIPOS>SUBSTRUCTURE
     1  XMP      6

