@<TRIPOS>MOLECULE
1lol_ligand_010
    35    37
SMALL
GAST_HUCK
****
This file was generated by PARSER (from files_GN.cpp)

@<TRIPOS>ATOM
      1 P           4.7268   36.9109   44.7343 P.3         1 XMP       0.2008
      2 O1P         3.7646   37.1998   43.7027 O.co2       1 XMP      -0.5537
      3 O2P         4.4060   35.6418   45.3393 O.co2       1 XMP      -0.5537
      4 O5'         4.9044   38.0962   45.7407 O.3         1 XMP      -0.2734
      5 O3P         5.9857   36.7404   44.0553 O.co2       1 XMP      -0.5537
      6 C5'         4.4163   37.9590   47.0987 C.3         1 XMP       0.1072
      7 C4'         3.0852   38.6872   47.4254 C.3         1 XMP       0.1182
      8 O4'         3.3157   40.0096   47.9152 O.3         1 XMP      -0.3363
      9 C1'         2.0548   40.7008   47.8716 C.3         1 XMP       0.2010
     10 N9          2.2955   42.1007   47.6441 N.pl3       1 XMP      -0.1896
     11 C4          3.2251   42.6500   46.8398 C.2         1 XMP       0.2049
     12 N3          4.1732   42.1050   46.0167 N.am        1 XMP      -0.1835
     13 N1          4.9529   44.2332   45.5048 N.am        1 XMP      -0.1870
     14 C2          5.0212   42.9029   45.3654 C.2         1 XMP       0.3214
     15 O2          5.8739   42.4102   44.6461 O.2         1 XMP      -0.3846
     16 C6          4.0471   44.8245   46.2887 C.2         1 XMP       0.1997
     17 O6          4.0314   46.0416   46.3983 O.2         1 XMP      -0.4080
     18 C5          3.1512   44.0330   46.9915 C.2         1 XMP       0.1084
     19 N7          2.1803   44.3130   47.8701 N.2         1 XMP      -0.3331
     20 C8          1.6665   43.1291   48.2563 C.2         1 XMP       0.0923
     21 C2'         1.1862   40.0073   46.7850 C.3         1 XMP       0.1387
     22 O2'        -0.0102   39.4678   47.3540 O.3         1 XMP      -0.3836
     23 C3'         2.1104   38.8994   46.2529 C.3         1 XMP       0.1149
     24 O3'         1.4445   37.6934   45.8827 O.3         1 XMP      -0.3864
     25 H1          5.1890   38.4079   47.7281 H           1 XMP       0.0639
     26 H2          4.3341   36.9185   47.4301 H           1 XMP       0.0639
     27 H3          2.5819   38.1152   48.2171 H           1 XMP       0.0650
     28 H4          1.5829   40.5656   48.8524 H           1 XMP       0.0998
     29 H5          4.2404   41.1421   45.9222 H           1 XMP       0.2360
     30 H6          5.5904   44.7875   45.0262 H           1 XMP       0.2254
     31 H7          0.9074   43.0372   48.9329 H           1 XMP       0.1125
     32 H8          0.9076   40.6954   45.9809 H           1 XMP       0.0676
     33 H9         -0.4500   38.9584   46.6374 H           1 XMP       0.2101
     34 H10         2.6402   39.2950   45.3855 H           1 XMP       0.0648
     35 H11         2.0468   36.9699   46.1497 H           1 XMP       0.2100
@<TRIPOS>BOND
     1     1     2  ar
     2     1     3  ar
     3     1     4   1
     4     1     5  ar
     5     4     6   1
     6     6     7   1
     7     7     8   1
     8     7    23   1
     9     8     9   1
    10     9    10   1
    11     9    21   1
    12    10    11   1
    13    10    20   1
    14    11    12  am
    15    11    18   2
    16    12    14  am
    17    14    13  am
    18    13    16  am
    19    14    15   2
    20    16    17   2
    21    16    18   1
    22    18    19   1
    23    19    20   2
    24    21    22   1
    25    21    23   1
    26    23    24   1
    27     6    25   1
    28     6    26   1
    29     7    27   1
    30     9    28   1
    31    12    29   1
    32    13    30   1
    33    20    31   1
    34    21    32   1
    35    22    33   1
    36    23    34   1
    37    24    35   1
@<TRIPOS>SUBSTRUCTURE
     1  XMP      6

