@<TRIPOS>MOLECULE
1lol_ligand_030
    35    37
SMALL
GAST_HUCK
****
This file was generated by PARSER (from files_GN.cpp)

@<TRIPOS>ATOM
      1 P          -1.8510   41.6463   46.9525 P.3         1 XMP       0.2008
      2 O1P        -2.1137   42.1910   45.6445 O.co2       1 XMP      -0.5537
      3 O2P        -1.4032   42.7360   47.7865 O.co2       1 XMP      -0.5537
      4 O5'        -0.8425   40.4610   47.0269 O.3         1 XMP      -0.2734
      5 O3P        -3.1260   41.2221   47.4913 O.co2       1 XMP      -0.5537
      6 C5'        -0.1726   40.0362   45.8148 C.3         1 XMP       0.1072
      7 C4'         0.9072   41.0125   45.2515 C.3         1 XMP       0.1182
      8 O4'         0.4933   42.3784   45.3960 O.3         1 XMP      -0.3363
      9 C1'         1.6370   43.2089   45.6885 C.3         1 XMP       0.2010
     10 N9          1.2433   44.3855   46.4313 N.pl3       1 XMP      -0.1896
     11 C4          2.0341   45.2472   47.1026 C.2         1 XMP       0.2049
     12 N3          3.3918   45.3608   47.2244 N.am        1 XMP      -0.1835
     13 N1          3.1223   47.1206   48.7093 N.am        1 XMP      -0.1870
     14 C2          3.9151   46.3015   48.0127 C.2         1 XMP       0.3214
     15 O2          5.1280   46.4236   48.0787 O.2         1 XMP      -0.3846
     16 C6          1.7897   47.0778   48.6203 C.2         1 XMP       0.1997
     17 O6          1.1041   47.8282   49.2993 O.2         1 XMP      -0.4080
     18 C5          1.2082   46.1461   47.7775 C.2         1 XMP       0.1084
     19 N7         -0.0643   45.8869   47.4549 N.2         1 XMP      -0.3331
     20 C8         -0.0204   44.8286   46.6241 C.2         1 XMP       0.0923
     21 C2'         2.6026   42.2793   46.4638 C.3         1 XMP       0.1387
     22 O2'         3.9741   42.6562   46.3095 O.3         1 XMP      -0.3836
     23 C3'         2.3159   40.8761   45.8923 C.3         1 XMP       0.1149
     24 O3'         3.2713   40.4863   44.8979 O.3         1 XMP      -0.3864
     25 H1         -0.8984   39.7975   45.0332 H           1 XMP       0.0639
     26 H2          0.3233   39.0888   46.0505 H           1 XMP       0.0639
     27 H3          0.9788   40.8119   44.1748 H           1 XMP       0.0650
     28 H4          2.1018   43.5330   44.7486 H           1 XMP       0.0998
     29 H5          3.9743   44.7868   46.7083 H           1 XMP       0.2360
     30 H6          3.5289   47.7770   49.2980 H           1 XMP       0.2254
     31 H7         -0.8563   44.4186   46.2058 H           1 XMP       0.1125
     32 H8          2.3532   42.2875   47.5312 H           1 XMP       0.0676
     33 H9          4.4844   41.9736   46.7908 H           1 XMP       0.2101
     34 H10         2.3418   40.1340   46.6932 H           1 XMP       0.0648
     35 H11         4.0784   40.2348   45.3932 H           1 XMP       0.2100
@<TRIPOS>BOND
     1     1     2  ar
     2     1     3  ar
     3     1     4   1
     4     1     5  ar
     5     4     6   1
     6     6     7   1
     7     7     8   1
     8     7    23   1
     9     8     9   1
    10     9    10   1
    11     9    21   1
    12    10    11   1
    13    10    20   1
    14    11    12  am
    15    11    18   2
    16    12    14  am
    17    14    13  am
    18    13    16  am
    19    14    15   2
    20    16    17   2
    21    16    18   1
    22    18    19   1
    23    19    20   2
    24    21    22   1
    25    21    23   1
    26    23    24   1
    27     6    25   1
    28     6    26   1
    29     7    27   1
    30     9    28   1
    31    12    29   1
    32    13    30   1
    33    20    31   1
    34    21    32   1
    35    22    33   1
    36    23    34   1
    37    24    35   1
@<TRIPOS>SUBSTRUCTURE
     1  XMP      6

