@<TRIPOS>MOLECULE
1lol_ligand_032
    35    37
SMALL
GAST_HUCK
****
This file was generated by PARSER (from files_GN.cpp)

@<TRIPOS>ATOM
      1 P           2.0612   39.9054   48.5790 P.3         1 XMP       0.2008
      2 O1P         2.9047   40.5126   47.5686 O.co2       1 XMP      -0.5537
      3 O2P         2.0975   38.4791   48.3676 O.co2       1 XMP      -0.5537
      4 O5'         0.5893   40.4034   48.3726 O.3         1 XMP      -0.2734
      5 O3P         2.5882   40.1987   49.8906 O.co2       1 XMP      -0.5537
      6 C5'         0.3616   41.8137   48.6127 C.3         1 XMP       0.1072
      7 C4'        -0.8687   42.3226   47.8042 C.3         1 XMP       0.1182
      8 O4'        -0.6652   43.6660   47.3609 O.3         1 XMP      -0.3363
      9 C1'         0.0140   43.6498   46.0802 C.3         1 XMP       0.2010
     10 N9          1.3576   44.1626   46.2036 N.pl3       1 XMP      -0.1896
     11 C4          1.7288   45.1734   47.0129 C.2         1 XMP       0.2049
     12 N3          1.0189   45.9949   47.8504 N.am        1 XMP      -0.1835
     13 N1          2.9978   46.9922   48.5576 N.am        1 XMP      -0.1870
     14 C2          1.6645   46.8825   48.6114 C.2         1 XMP       0.3214
     15 O2          1.0233   47.5953   49.3655 O.2         1 XMP      -0.3846
     16 C6          3.7391   46.2364   47.7411 C.2         1 XMP       0.1997
     17 O6          4.9565   46.3287   47.7544 O.2         1 XMP      -0.4080
     18 C5          3.1107   45.3083   46.9258 C.2         1 XMP       0.1084
     19 N7          3.5654   44.4149   46.0395 N.2         1 XMP      -0.3331
     20 C8          2.4909   43.7410   45.5976 C.2         1 XMP       0.0923
     21 C2'        -0.1449   42.1930   45.5459 C.3         1 XMP       0.1387
     22 O2'        -0.5456   42.1231   44.1726 O.3         1 XMP      -0.3836
     23 C3'        -1.1852   41.5830   46.4910 C.3         1 XMP       0.1149
     24 O3'        -2.5129   41.8908   46.0565 O.3         1 XMP      -0.3864
     25 H1          1.2306   42.4275   48.3456 H           1 XMP       0.0639
     26 H2          0.1687   41.9729   49.6827 H           1 XMP       0.0639
     27 H3         -1.7460   42.2930   48.4499 H           1 XMP       0.0650
     28 H4         -0.5375   44.3319   45.4301 H           1 XMP       0.0998
     29 H5          0.0516   45.9229   47.8981 H           1 XMP       0.2360
     30 H6          3.4369   47.6311   49.1440 H           1 XMP       0.2254
     31 H7          2.5532   42.9971   44.9041 H           1 XMP       0.1125
     32 H8          0.7860   41.6272   45.6628 H           1 XMP       0.0676
     33 H9         -0.6086   41.1623   43.9844 H           1 XMP       0.2101
     34 H10        -1.0763   40.4958   46.5708 H           1 XMP       0.0648
     35 H11        -3.0905   41.4653   46.7214 H           1 XMP       0.2100
@<TRIPOS>BOND
     1     1     2  ar
     2     1     3  ar
     3     1     4   1
     4     1     5  ar
     5     4     6   1
     6     6     7   1
     7     7     8   1
     8     7    23   1
     9     8     9   1
    10     9    10   1
    11     9    21   1
    12    10    11   1
    13    10    20   1
    14    11    12  am
    15    11    18   2
    16    12    14  am
    17    14    13  am
    18    13    16  am
    19    14    15   2
    20    16    17   2
    21    16    18   1
    22    18    19   1
    23    19    20   2
    24    21    22   1
    25    21    23   1
    26    23    24   1
    27     6    25   1
    28     6    26   1
    29     7    27   1
    30     9    28   1
    31    12    29   1
    32    13    30   1
    33    20    31   1
    34    21    32   1
    35    22    33   1
    36    23    34   1
    37    24    35   1
@<TRIPOS>SUBSTRUCTURE
     1  XMP      6

