@<TRIPOS>MOLECULE
1lol_ligand_065
    35    37
SMALL
GAST_HUCK
****
This file was generated by PARSER (from files_GN.cpp)

@<TRIPOS>ATOM
      1 P           2.2562   41.0873   43.6676 P.3         1 XMP       0.2008
      2 O1P         2.6862   42.4386   43.4213 O.co2       1 XMP      -0.5537
      3 O2P         1.3837   40.7008   42.5847 O.co2       1 XMP      -0.5537
      4 O5'         1.4833   41.0665   45.0129 O.3         1 XMP      -0.2734
      5 O3P         3.4320   40.2429   43.6778 O.co2       1 XMP      -0.5537
      6 C5'         0.6586   39.9055   45.2676 C.3         1 XMP       0.1072
      7 C4'        -0.2153   40.1232   46.5335 C.3         1 XMP       0.1182
      8 O4'         0.4910   40.9553   47.4654 O.3         1 XMP      -0.3363
      9 C1'        -0.0795   42.2794   47.4658 C.3         1 XMP       0.2010
     10 N9          0.9842   43.2476   47.3575 N.pl3       1 XMP      -0.1896
     11 C4          1.8800   43.4916   48.3355 C.2         1 XMP       0.2049
     12 N3          2.0139   42.9962   49.6048 N.am        1 XMP      -0.1835
     13 N1          3.8688   44.3512   49.9383 N.am        1 XMP      -0.1870
     14 C2          2.9992   43.4384   50.3850 C.2         1 XMP       0.3214
     15 O2          3.1164   42.9945   51.5208 O.2         1 XMP      -0.3846
     16 C6          3.7978   44.8630   48.7058 C.2         1 XMP       0.1997
     17 O6          4.6321   45.6701   48.3268 O.2         1 XMP      -0.4080
     18 C5          2.7773   44.4470   47.8675 C.2         1 XMP       0.1084
     19 N7          2.4295   44.7826   46.6213 N.2         1 XMP      -0.3331
     20 C8          1.3347   44.0502   46.3269 C.2         1 XMP       0.0923
     21 C2'        -1.2211   42.2985   46.4121 C.3         1 XMP       0.1387
     22 O2'        -2.3393   43.0971   46.7996 O.3         1 XMP      -0.3836
     23 C3'        -1.5767   40.8158   46.2999 C.3         1 XMP       0.1149
     24 O3'        -2.5122   40.4536   47.3186 O.3         1 XMP      -0.3864
     25 H1          1.2910   39.0252   45.4375 H           1 XMP       0.0639
     26 H2         -0.0008   39.6988   44.4201 H           1 XMP       0.0639
     27 H3         -0.3820   39.1449   46.9907 H           1 XMP       0.0650
     28 H4         -0.5510   42.4083   48.4477 H           1 XMP       0.0998
     29 H5          1.3879   42.3332   49.9410 H           1 XMP       0.2360
     30 H6          4.5815   44.6497   50.5227 H           1 XMP       0.2254
     31 H7          0.8701   44.1130   45.4209 H           1 XMP       0.1125
     32 H8         -0.8898   42.6422   45.4261 H           1 XMP       0.0676
     33 H9         -2.1574   43.9932   46.4475 H           1 XMP       0.2101
     34 H10        -2.0118   40.5799   45.3237 H           1 XMP       0.0648
     35 H11        -2.7186   39.5178   47.1404 H           1 XMP       0.2100
@<TRIPOS>BOND
     1     1     2  ar
     2     1     3  ar
     3     1     4   1
     4     1     5  ar
     5     4     6   1
     6     6     7   1
     7     7     8   1
     8     7    23   1
     9     8     9   1
    10     9    10   1
    11     9    21   1
    12    10    11   1
    13    10    20   1
    14    11    12  am
    15    11    18   2
    16    12    14  am
    17    14    13  am
    18    13    16  am
    19    14    15   2
    20    16    17   2
    21    16    18   1
    22    18    19   1
    23    19    20   2
    24    21    22   1
    25    21    23   1
    26    23    24   1
    27     6    25   1
    28     6    26   1
    29     7    27   1
    30     9    28   1
    31    12    29   1
    32    13    30   1
    33    20    31   1
    34    21    32   1
    35    22    33   1
    36    23    34   1
    37    24    35   1
@<TRIPOS>SUBSTRUCTURE
     1  XMP      6

