@<TRIPOS>MOLECULE
1lol_ligand_020
    35    37
SMALL
GAST_HUCK
****
This file was generated by PARSER (from files_GN.cpp)

@<TRIPOS>ATOM
      1 P           4.6779   35.9702   43.7843 P.3         1 XMP       0.2008
      2 O1P         4.5552   34.5350   43.7098 O.co2       1 XMP      -0.5537
      3 O2P         5.5114   36.3453   44.8974 O.co2       1 XMP      -0.5537
      4 O5'         3.3015   36.7046   43.8168 O.3         1 XMP      -0.2734
      5 O3P         5.3584   36.4051   42.5905 O.co2       1 XMP      -0.5537
      6 C5'         2.6544   36.8059   45.1064 C.3         1 XMP       0.1072
      7 C4'         1.5163   37.8571   45.0819 C.3         1 XMP       0.1182
      8 O4'         2.0662   39.1461   45.3551 O.3         1 XMP      -0.3363
      9 C1'         1.0635   40.0973   44.9834 C.3         1 XMP       0.2010
     10 N9          1.6934   41.3777   44.8149 N.pl3       1 XMP      -0.1896
     11 C4          1.4618   42.4879   45.5386 C.2         1 XMP       0.2049
     12 N3          0.5654   42.7718   46.5318 N.am        1 XMP      -0.1835
     13 N1          1.4514   44.9074   46.7178 N.am        1 XMP      -0.1870
     14 C2          0.5730   43.9762   47.1022 C.2         1 XMP       0.3214
     15 O2         -0.2413   44.2215   47.9768 O.2         1 XMP      -0.3846
     16 C6          2.3452   44.6926   45.7488 C.2         1 XMP       0.1997
     17 O6          3.1340   45.5740   45.4443 O.2         1 XMP      -0.4080
     18 C5          2.3693   43.4583   45.1185 C.2         1 XMP       0.1084
     19 N7          3.1262   42.9403   44.1409 N.2         1 XMP      -0.3331
     20 C8          2.7007   41.6764   43.9605 C.2         1 XMP       0.0923
     21 C2'         0.3781   39.5256   43.7191 C.3         1 XMP       0.1387
     22 O2'        -1.0383   39.7363   43.7367 O.3         1 XMP      -0.3836
     23 C3'         0.7575   38.0231   43.7428 C.3         1 XMP       0.1149
     24 O3'        -0.3321   37.1121   43.6133 O.3         1 XMP      -0.3864
     25 H1          3.3664   37.1006   45.8915 H           1 XMP       0.0639
     26 H2          2.2248   35.8402   45.3873 H           1 XMP       0.0639
     27 H3          0.8043   37.6052   45.8800 H           1 XMP       0.0650
     28 H4          0.3303   40.1367   45.7958 H           1 XMP       0.0998
     29 H5         -0.0719   42.0955   46.8159 H           1 XMP       0.2360
     30 H6          1.4315   45.7707   47.1581 H           1 XMP       0.2254
     31 H7          3.1177   41.0267   43.2920 H           1 XMP       0.1125
     32 H8          0.7785   40.0007   42.8091 H           1 XMP       0.0676
     33 H9         -1.1456   40.7129   43.6932 H           1 XMP       0.2101
     34 H10         1.4240   37.8274   42.9071 H           1 XMP       0.0648
     35 H11        -0.9954   37.4243   44.2596 H           1 XMP       0.2100
@<TRIPOS>BOND
     1     1     2  ar
     2     1     3  ar
     3     1     4   1
     4     1     5  ar
     5     4     6   1
     6     6     7   1
     7     7     8   1
     8     7    23   1
     9     8     9   1
    10     9    10   1
    11     9    21   1
    12    10    11   1
    13    10    20   1
    14    11    12  am
    15    11    18   2
    16    12    14  am
    17    14    13  am
    18    13    16  am
    19    14    15   2
    20    16    17   2
    21    16    18   1
    22    18    19   1
    23    19    20   2
    24    21    22   1
    25    21    23   1
    26    23    24   1
    27     6    25   1
    28     6    26   1
    29     7    27   1
    30     9    28   1
    31    12    29   1
    32    13    30   1
    33    20    31   1
    34    21    32   1
    35    22    33   1
    36    23    34   1
    37    24    35   1
@<TRIPOS>SUBSTRUCTURE
     1  XMP      6

