@<TRIPOS>MOLECULE
1lol_ligand_055
    35    37
SMALL
GAST_HUCK
****
This file was generated by PARSER (from files_GN.cpp)

@<TRIPOS>ATOM
      1 P          -0.6348   41.9217   46.2936 P.3         1 XMP       0.2008
      2 O1P         0.0413   41.4346   45.1056 O.co2       1 XMP      -0.5537
      3 O2P        -1.9380   42.3749   45.8522 O.co2       1 XMP      -0.5537
      4 O5'         0.1405   43.0180   47.0932 O.3         1 XMP      -0.2734
      5 O3P        -0.8257   40.7873   47.1639 O.co2       1 XMP      -0.5537
      6 C5'         1.3844   43.5226   46.5503 C.3         1 XMP       0.1072
      7 C4'         2.5996   42.5528   46.7033 C.3         1 XMP       0.1182
      8 O4'         2.2014   41.1780   46.7507 O.3         1 XMP      -0.3363
      9 C1'         3.3548   40.3727   46.4600 C.3         1 XMP       0.2010
     10 N9          2.9011   39.1338   45.8925 N.pl3       1 XMP      -0.1896
     11 C4          2.0603   38.9940   44.8476 C.2         1 XMP       0.2049
     12 N3          1.4484   39.9104   44.0286 N.am        1 XMP      -0.1835
     13 N1          0.2979   38.1771   42.9860 N.am        1 XMP      -0.1870
     14 C2          0.5892   39.4774   43.1018 C.2         1 XMP       0.3214
     15 O2          0.0545   40.2810   42.3576 O.2         1 XMP      -0.3846
     16 C6          0.8708   37.2436   43.7494 C.2         1 XMP       0.1997
     17 O6          0.5813   36.0679   43.6024 O.2         1 XMP      -0.4080
     18 C5          1.7800   37.6366   44.7195 C.2         1 XMP       0.1084
     19 N7          2.4632   36.9662   45.6547 N.2         1 XMP      -0.3331
     20 C8          3.1443   37.8900   46.3606 C.2         1 XMP       0.0923
     21 C2'         4.2719   41.2154   45.5387 C.3         1 XMP       0.1387
     22 O2'         5.6125   41.2581   46.0361 O.3         1 XMP      -0.3836
     23 C3'         3.6059   42.6101   45.5339 C.3         1 XMP       0.1149
     24 O3'         4.5262   43.6934   45.6783 O.3         1 XMP      -0.3864
     25 H1          1.6176   44.4291   47.1144 H           1 XMP       0.0639
     26 H2          1.2495   43.8499   45.5134 H           1 XMP       0.0639
     27 H3          3.1112   42.7792   47.6476 H           1 XMP       0.0650
     28 H4          3.8665   40.1845   47.4093 H           1 XMP       0.0998
     29 H5          1.6558   40.8506   44.1034 H           1 XMP       0.2360
     30 H6         -0.3476   37.8989   42.3122 H           1 XMP       0.2254
     31 H7          3.7216   37.6638   47.1727 H           1 XMP       0.1125
     32 H8          4.3047   40.8199   44.5208 H           1 XMP       0.0676
     33 H9          5.9351   40.3338   45.9762 H           1 XMP       0.2101
     34 H10         3.0769   42.7370   44.5856 H           1 XMP       0.0648
     35 H11         5.1428   43.6022   44.9213 H           1 XMP       0.2100
@<TRIPOS>BOND
     1     1     2  ar
     2     1     3  ar
     3     1     4   1
     4     1     5  ar
     5     4     6   1
     6     6     7   1
     7     7     8   1
     8     7    23   1
     9     8     9   1
    10     9    10   1
    11     9    21   1
    12    10    11   1
    13    10    20   1
    14    11    12  am
    15    11    18   2
    16    12    14  am
    17    14    13  am
    18    13    16  am
    19    14    15   2
    20    16    17   2
    21    16    18   1
    22    18    19   1
    23    19    20   2
    24    21    22   1
    25    21    23   1
    26    23    24   1
    27     6    25   1
    28     6    26   1
    29     7    27   1
    30     9    28   1
    31    12    29   1
    32    13    30   1
    33    20    31   1
    34    21    32   1
    35    22    33   1
    36    23    34   1
    37    24    35   1
@<TRIPOS>SUBSTRUCTURE
     1  XMP      6

