@<TRIPOS>MOLECULE
1lol_ligand_079
    35    37
SMALL
GAST_HUCK
****
This file was generated by PARSER (from files_GN.cpp)

@<TRIPOS>ATOM
      1 P          -1.5297   42.0873   47.0137 P.3         1 XMP       0.2008
      2 O1P        -1.2866   43.2133   47.8758 O.co2       1 XMP      -0.5537
      3 O2P        -2.6194   41.3312   47.5696 O.co2       1 XMP      -0.5537
      4 O5'        -0.2256   41.2452   46.9709 O.3         1 XMP      -0.2734
      5 O3P        -1.9110   42.5914   45.7195 O.co2       1 XMP      -0.5537
      6 C5'        -0.0650   40.2318   45.9561 C.3         1 XMP       0.1072
      7 C4'         1.2801   40.4413   45.1837 C.3         1 XMP       0.1182
      8 O4'         1.9376   41.6573   45.5840 O.3         1 XMP      -0.3363
      9 C1'         2.9654   41.3621   46.5470 C.3         1 XMP       0.2010
     10 N9          2.7255   42.1097   47.7609 N.pl3       1 XMP      -0.1896
     11 C4          3.0983   43.3884   47.9720 C.2         1 XMP       0.2049
     12 N3          3.7991   44.2865   47.2088 N.am        1 XMP      -0.1835
     13 N1          3.5881   45.8857   48.8828 N.am        1 XMP      -0.1870
     14 C2          4.0357   45.5134   47.6774 C.2         1 XMP       0.3214
     15 O2          4.6606   46.3102   46.9964 O.2         1 XMP      -0.3846
     16 C6          2.8950   45.0596   49.6704 C.2         1 XMP       0.1997
     17 O6          2.4895   45.4468   50.7545 O.2         1 XMP      -0.4080
     18 C5          2.6353   43.7704   49.2287 C.2         1 XMP       0.1084
     19 N7          1.9789   42.7404   49.7715 N.2         1 XMP      -0.3331
     20 C8          2.0392   41.7416   48.8717 C.2         1 XMP       0.0923
     21 C2'         3.0762   39.8165   46.6452 C.3         1 XMP       0.1387
     22 O2'         4.4212   39.3457   46.7422 O.3         1 XMP      -0.3836
     23 C3'         2.3453   39.3372   45.3806 C.3         1 XMP       0.1149
     24 O3'         3.2067   39.2646   44.2404 O.3         1 XMP      -0.3864
     25 H1         -0.8874   40.2091   45.2317 H           1 XMP       0.0639
     26 H2         -0.0747   39.2640   46.4622 H           1 XMP       0.0639
     27 H3          1.0498   40.5293   44.1166 H           1 XMP       0.0650
     28 H4          3.8972   41.7249   46.1010 H           1 XMP       0.0998
     29 H5          4.1218   44.0307   46.3297 H           1 XMP       0.2360
     30 H6          3.7691   46.7889   49.1927 H           1 XMP       0.2254
     31 H7          1.5899   40.8395   49.0303 H           1 XMP       0.1125
     32 H8          2.5370   39.4304   47.5108 H           1 XMP       0.0676
     33 H9          4.8813   39.6858   45.9464 H           1 XMP       0.2101
     34 H10         1.9007   38.3492   45.5251 H           1 XMP       0.0648
     35 H11         3.5983   40.1584   44.1455 H           1 XMP       0.2100
@<TRIPOS>BOND
     1     1     2  ar
     2     1     3  ar
     3     1     4   1
     4     1     5  ar
     5     4     6   1
     6     6     7   1
     7     7     8   1
     8     7    23   1
     9     8     9   1
    10     9    10   1
    11     9    21   1
    12    10    11   1
    13    10    20   1
    14    11    12  am
    15    11    18   2
    16    12    14  am
    17    14    13  am
    18    13    16  am
    19    14    15   2
    20    16    17   2
    21    16    18   1
    22    18    19   1
    23    19    20   2
    24    21    22   1
    25    21    23   1
    26    23    24   1
    27     6    25   1
    28     6    26   1
    29     7    27   1
    30     9    28   1
    31    12    29   1
    32    13    30   1
    33    20    31   1
    34    21    32   1
    35    22    33   1
    36    23    34   1
    37    24    35   1
@<TRIPOS>SUBSTRUCTURE
     1  XMP      6

