@<TRIPOS>MOLECULE
1lol_ligand_060
    35    37
SMALL
GAST_HUCK
****
This file was generated by PARSER (from files_GN.cpp)

@<TRIPOS>ATOM
      1 P          -4.7186   42.4822   47.5934 P.3         1 XMP       0.2008
      2 O1P        -5.9947   42.5981   46.9168 O.co2       1 XMP      -0.5537
      3 O2P        -4.6066   43.6500   48.4402 O.co2       1 XMP      -0.5537
      4 O5'        -3.6350   42.3817   46.4851 O.3         1 XMP      -0.2734
      5 O3P        -4.8331   41.2896   48.4046 O.co2       1 XMP      -0.5537
      6 C5'        -2.5293   41.4718   46.6459 C.3         1 XMP       0.1072
      7 C4'        -1.2425   42.0598   47.2991 C.3         1 XMP       0.1182
      8 O4'        -0.3542   40.9547   47.5203 O.3         1 XMP      -0.3363
      9 C1'         0.7389   40.9938   46.5866 C.3         1 XMP       0.2010
     10 N9          0.8917   39.7061   45.9447 N.pl3       1 XMP      -0.1896
     11 C4          0.3507   39.2143   44.8089 C.2         1 XMP       0.2049
     12 N3         -0.5057   39.7207   43.8615 N.am        1 XMP      -0.1835
     13 N1         -0.3265   37.7749   42.6099 N.am        1 XMP      -0.1870
     14 C2         -0.8050   39.0142   42.7743 C.2         1 XMP       0.3214
     15 O2         -1.5302   39.4876   41.9139 O.2         1 XMP      -0.3846
     16 C6          0.4495   37.1914   43.5304 C.2         1 XMP       0.1997
     17 O6          0.8064   36.0322   43.3802 O.2         1 XMP      -0.4080
     18 C5          0.8354   37.9170   44.6488 C.2         1 XMP       0.1084
     19 N7          1.6253   37.6104   45.6834 N.2         1 XMP      -0.3331
     20 C8          1.6429   38.7045   46.4648 C.2         1 XMP       0.0923
     21 C2'         0.5633   42.2365   45.6791 C.3         1 XMP       0.1387
     22 O2'         1.7945   42.9137   45.4119 O.3         1 XMP      -0.3836
     23 C3'        -0.4424   43.0969   46.4659 C.3         1 XMP       0.1149
     24 O3'         0.2234   44.0330   47.3190 O.3         1 XMP      -0.3864
     25 H1         -2.2760   41.1524   45.6403 H           1 XMP       0.0639
     26 H2         -2.8401   40.5707   47.1834 H           1 XMP       0.0639
     27 H3         -1.5264   42.4976   48.2621 H           1 XMP       0.0650
     28 H4          1.6272   41.1851   47.1975 H           1 XMP       0.0998
     29 H5         -0.9090   40.5910   43.9771 H           1 XMP       0.2360
     30 H6         -0.5607   37.2796   41.8092 H           1 XMP       0.2254
     31 H7          2.1605   38.7495   47.3439 H           1 XMP       0.1125
     32 H8          0.1233   41.9660   44.7188 H           1 XMP       0.0676
     33 H9          2.3268   42.2759   44.8889 H           1 XMP       0.2101
     34 H10        -1.0958   43.6605   45.7899 H           1 XMP       0.0648
     35 H11         0.8312   43.4993   47.8769 H           1 XMP       0.2100
@<TRIPOS>BOND
     1     1     2  ar
     2     1     3  ar
     3     1     4   1
     4     1     5  ar
     5     4     6   1
     6     6     7   1
     7     7     8   1
     8     7    23   1
     9     8     9   1
    10     9    10   1
    11     9    21   1
    12    10    11   1
    13    10    20   1
    14    11    12  am
    15    11    18   2
    16    12    14  am
    17    14    13  am
    18    13    16  am
    19    14    15   2
    20    16    17   2
    21    16    18   1
    22    18    19   1
    23    19    20   2
    24    21    22   1
    25    21    23   1
    26    23    24   1
    27     6    25   1
    28     6    26   1
    29     7    27   1
    30     9    28   1
    31    12    29   1
    32    13    30   1
    33    20    31   1
    34    21    32   1
    35    22    33   1
    36    23    34   1
    37    24    35   1
@<TRIPOS>SUBSTRUCTURE
     1  XMP      6

