@<TRIPOS>MOLECULE
1lol_ligand_002
    35    37
SMALL
GAST_HUCK
****
This file was generated by PARSER (from files_GN.cpp)

@<TRIPOS>ATOM
      1 P           4.8265   35.7291   44.1481 P.3         1 XMP       0.2008
      2 O1P         6.0726   36.3808   43.8175 O.co2       1 XMP      -0.5537
      3 O2P         3.8168   36.0641   43.1683 O.co2       1 XMP      -0.5537
      4 O5'         4.2595   36.0962   45.5495 O.3         1 XMP      -0.2734
      5 O3P         5.0109   34.3041   44.0877 O.co2       1 XMP      -0.5537
      6 C5'         4.2097   37.5019   45.8995 C.3         1 XMP       0.1072
      7 C4'         3.0483   37.7087   46.9060 C.3         1 XMP       0.1182
      8 O4'         3.2996   38.8692   47.7152 O.3         1 XMP      -0.3363
      9 C1'         2.0252   39.2933   48.2106 C.3         1 XMP       0.2010
     10 N9          2.1160   40.5971   48.8043 N.pl3       1 XMP      -0.1896
     11 C4          2.5281   41.7371   48.2198 C.2         1 XMP       0.2049
     12 N3          2.9621   42.0213   46.9540 N.am        1 XMP      -0.1835
     13 N1          3.2587   44.2427   47.5564 N.am        1 XMP      -0.1870
     14 C2          3.3087   43.2696   46.6383 C.2         1 XMP       0.3214
     15 O2          3.6731   43.5279   45.5031 O.2         1 XMP      -0.3846
     16 C6          2.8644   44.0218   48.8129 C.2         1 XMP       0.1997
     17 O6          2.8394   44.9424   49.6143 O.2         1 XMP      -0.4080
     18 C5          2.4837   42.7426   49.1805 C.2         1 XMP       0.1084
     19 N7          2.0642   42.2128   50.3363 N.2         1 XMP      -0.3331
     20 C8          1.8470   40.9076   50.0925 C.2         1 XMP       0.0923
     21 C2'         1.1031   39.1860   46.9796 C.3         1 XMP       0.1387
     22 O2'        -0.2679   39.1136   47.3652 O.3         1 XMP      -0.3836
     23 C3'         1.6520   37.9379   46.2484 C.3         1 XMP       0.1149
     24 O3'         0.8143   36.7917   46.4068 O.3         1 XMP      -0.3864
     25 H1          4.0696   38.1774   45.0414 H           1 XMP       0.0639
     26 H2          5.1558   37.7625   46.3898 H           1 XMP       0.0639
     27 H3          3.0176   36.8434   47.5807 H           1 XMP       0.0650
     28 H4          1.6870   38.5681   48.9639 H           1 XMP       0.0998
     29 H5          3.0136   41.3185   46.2869 H           1 XMP       0.2360
     30 H6          3.5145   45.1422   47.2964 H           1 XMP       0.2254
     31 H7          1.5334   40.2494   50.8051 H           1 XMP       0.1125
     32 H8          1.2300   40.0600   46.3369 H           1 XMP       0.0676
     33 H9         -0.7697   38.9172   46.5469 H           1 XMP       0.2101
     34 H10         1.7351   38.1401   45.1747 H           1 XMP       0.0648
     35 H11        -0.0655   37.0708   46.0688 H           1 XMP       0.2100
@<TRIPOS>BOND
     1     1     2  ar
     2     1     3  ar
     3     1     4   1
     4     1     5  ar
     5     4     6   1
     6     6     7   1
     7     7     8   1
     8     7    23   1
     9     8     9   1
    10     9    10   1
    11     9    21   1
    12    10    11   1
    13    10    20   1
    14    11    12  am
    15    11    18   2
    16    12    14  am
    17    14    13  am
    18    13    16  am
    19    14    15   2
    20    16    17   2
    21    16    18   1
    22    18    19   1
    23    19    20   2
    24    21    22   1
    25    21    23   1
    26    23    24   1
    27     6    25   1
    28     6    26   1
    29     7    27   1
    30     9    28   1
    31    12    29   1
    32    13    30   1
    33    20    31   1
    34    21    32   1
    35    22    33   1
    36    23    34   1
    37    24    35   1
@<TRIPOS>SUBSTRUCTURE
     1  XMP      6

