@<TRIPOS>MOLECULE
1lol_ligand_031
    35    37
SMALL
GAST_HUCK
****
This file was generated by PARSER (from files_GN.cpp)

@<TRIPOS>ATOM
      1 P           4.8733   35.6888   43.7799 P.3         1 XMP       0.2008
      2 O1P         5.0806   34.2647   43.8825 O.co2       1 XMP      -0.5537
      3 O2P         5.6840   36.1514   42.6797 O.co2       1 XMP      -0.5537
      4 O5'         5.3047   36.3819   45.1139 O.3         1 XMP      -0.2734
      5 O3P         3.4845   35.8687   43.4233 O.co2       1 XMP      -0.5537
      6 C5'         4.6554   37.6252   45.4773 C.3         1 XMP       0.1072
      7 C4'         5.0105   38.8603   44.5753 C.3         1 XMP       0.1182
      8 O4'         3.7885   39.5162   44.1822 O.3         1 XMP      -0.3363
      9 C1'         3.7081   40.8107   44.8140 C.3         1 XMP       0.2010
     10 N9          2.4197   41.1086   45.3664 N.pl3       1 XMP      -0.1896
     11 C4          2.0044   42.3201   45.7711 C.2         1 XMP       0.2049
     12 N3          2.5879   43.5565   45.7321 N.am        1 XMP      -0.1835
     13 N1          0.7323   44.4614   46.7931 N.am        1 XMP      -0.1870
     14 C2          1.9472   44.6035   46.2526 C.2         1 XMP       0.3214
     15 O2          2.4745   45.7045   46.2261 O.2         1 XMP      -0.3846
     16 C6          0.1104   43.2808   46.8516 C.2         1 XMP       0.1997
     17 O6         -0.9984   43.2077   47.3595 O.2         1 XMP      -0.4080
     18 C5          0.7396   42.1636   46.3257 C.2         1 XMP       0.1084
     19 N7          0.3951   40.8691   46.2457 N.2         1 XMP      -0.3331
     20 C8          1.4245   40.2397   45.6527 C.2         1 XMP       0.0923
     21 C2'         4.8119   40.8434   45.8918 C.3         1 XMP       0.1387
     22 O2'         5.3040   42.1445   46.1962 O.3         1 XMP      -0.3836
     23 C3'         5.8822   39.9372   45.2715 C.3         1 XMP       0.1149
     24 O3'         6.6918   40.6555   44.3363 O.3         1 XMP      -0.3864
     25 H1          4.9654   37.8198   46.5069 H           1 XMP       0.0639
     26 H2          3.5691   37.4844   45.5384 H           1 XMP       0.0639
     27 H3          5.5054   38.5201   43.6644 H           1 XMP       0.0650
     28 H4          3.9407   41.5455   44.0331 H           1 XMP       0.0998
     29 H5          3.4661   43.6677   45.3339 H           1 XMP       0.2360
     30 H6          0.2905   45.2451   47.1566 H           1 XMP       0.2254
     31 H7          1.4484   39.2338   45.4804 H           1 XMP       0.1125
     32 H8          4.4435   40.3880   46.8189 H           1 XMP       0.0676
     33 H9          4.6508   42.5249   46.8192 H           1 XMP       0.2101
     34 H10         6.5403   39.5233   46.0444 H           1 XMP       0.0648
     35 H11         6.2284   40.5986   43.4739 H           1 XMP       0.2100
@<TRIPOS>BOND
     1     1     2  ar
     2     1     3  ar
     3     1     4   1
     4     1     5  ar
     5     4     6   1
     6     6     7   1
     7     7     8   1
     8     7    23   1
     9     8     9   1
    10     9    10   1
    11     9    21   1
    12    10    11   1
    13    10    20   1
    14    11    12  am
    15    11    18   2
    16    12    14  am
    17    14    13  am
    18    13    16  am
    19    14    15   2
    20    16    17   2
    21    16    18   1
    22    18    19   1
    23    19    20   2
    24    21    22   1
    25    21    23   1
    26    23    24   1
    27     6    25   1
    28     6    26   1
    29     7    27   1
    30     9    28   1
    31    12    29   1
    32    13    30   1
    33    20    31   1
    34    21    32   1
    35    22    33   1
    36    23    34   1
    37    24    35   1
@<TRIPOS>SUBSTRUCTURE
     1  XMP      6

