@<TRIPOS>MOLECULE
1lol_ligand_071
    35    37
SMALL
GAST_HUCK
****
This file was generated by PARSER (from files_GN.cpp)

@<TRIPOS>ATOM
      1 P           0.6079   45.2626   50.0991 P.3         1 XMP       0.2008
      2 O1P        -0.3009   45.6899   51.1364 O.co2       1 XMP      -0.5537
      3 O2P         1.6641   44.5267   50.7516 O.co2       1 XMP      -0.5537
      4 O5'         1.1322   46.5549   49.4127 O.3         1 XMP      -0.2734
      5 O3P        -0.1343   44.4062   49.2076 O.co2       1 XMP      -0.5537
      6 C5'         1.4961   46.5100   48.0171 C.3         1 XMP       0.1072
      7 C4'         2.8752   45.8840   47.6787 C.3         1 XMP       0.1182
      8 O4'         2.8918   44.4773   47.9396 O.3         1 XMP      -0.3363
      9 C1'         3.9048   43.8583   47.1254 C.3         1 XMP       0.2010
     10 N9          3.4731   42.5813   46.6200 N.pl3       1 XMP      -0.1896
     11 C4          4.1471   41.7988   45.7562 C.2         1 XMP       0.2049
     12 N3          5.3418   41.9545   45.1109 N.am        1 XMP      -0.1835
     13 N1          4.9958   39.9608   43.9778 N.am        1 XMP      -0.1870
     14 C2          5.7487   41.0344   44.2363 C.2         1 XMP       0.3214
     15 O2          6.8139   41.1838   43.6606 O.2         1 XMP      -0.3846
     16 C6          3.8222   39.7500   44.5786 C.2         1 XMP       0.1997
     17 O6          3.1648   38.7575   44.3114 O.2         1 XMP      -0.4080
     18 C5          3.3641   40.6755   45.5023 C.2         1 XMP       0.1084
     19 N7          2.2407   40.7669   46.2241 N.2         1 XMP      -0.3331
     20 C8          2.3223   41.9262   46.9048 C.2         1 XMP       0.0923
     21 C2'         4.2654   44.8782   46.0111 C.3         1 XMP       0.1387
     22 O2'         5.6004   45.3616   46.2057 O.3         1 XMP      -0.3836
     23 C3'         3.2129   45.9813   46.1768 C.3         1 XMP       0.1149
     24 O3'         3.6888   47.2571   45.7524 O.3         1 XMP      -0.3864
     25 H1          1.5411   47.5519   47.7059 H           1 XMP       0.0639
     26 H2          0.7096   46.0386   47.4183 H           1 XMP       0.0639
     27 H3          3.6555   46.3713   48.2758 H           1 XMP       0.0650
     28 H4          4.7732   43.6876   47.7659 H           1 XMP       0.0998
     29 H5          5.8783   42.7452   45.2683 H           1 XMP       0.2360
     30 H6          5.3157   39.3089   43.3340 H           1 XMP       0.2254
     31 H7          1.5940   42.2546   47.5432 H           1 XMP       0.1125
     32 H8          4.1925   44.4519   45.0031 H           1 XMP       0.0676
     33 H9          5.8880   45.7228   45.3387 H           1 XMP       0.2101
     34 H10         2.3395   45.7172   45.5714 H           1 XMP       0.0648
     35 H11         2.9527   47.6852   45.2585 H           1 XMP       0.2100
@<TRIPOS>BOND
     1     1     2  ar
     2     1     3  ar
     3     1     4   1
     4     1     5  ar
     5     4     6   1
     6     6     7   1
     7     7     8   1
     8     7    23   1
     9     8     9   1
    10     9    10   1
    11     9    21   1
    12    10    11   1
    13    10    20   1
    14    11    12  am
    15    11    18   2
    16    12    14  am
    17    14    13  am
    18    13    16  am
    19    14    15   2
    20    16    17   2
    21    16    18   1
    22    18    19   1
    23    19    20   2
    24    21    22   1
    25    21    23   1
    26    23    24   1
    27     6    25   1
    28     6    26   1
    29     7    27   1
    30     9    28   1
    31    12    29   1
    32    13    30   1
    33    20    31   1
    34    21    32   1
    35    22    33   1
    36    23    34   1
    37    24    35   1
@<TRIPOS>SUBSTRUCTURE
     1  XMP      6

