@<TRIPOS>MOLECULE
1lol_ligand_053
    35    37
SMALL
GAST_HUCK
****
This file was generated by PARSER (from files_GN.cpp)

@<TRIPOS>ATOM
      1 P           4.7990   35.6253   44.1224 P.3         1 XMP       0.2008
      2 O1P         5.8539   36.2816   43.3827 O.co2       1 XMP      -0.5537
      3 O2P         3.5222   35.9105   43.5200 O.co2       1 XMP      -0.5537
      4 O5'         4.7688   35.9049   45.6622 O.3         1 XMP      -0.2734
      5 O3P         5.0233   34.2174   43.9380 O.co2       1 XMP      -0.5537
      6 C5'         5.4162   37.1042   46.1605 C.3         1 XMP       0.1072
      7 C4'         4.4918   38.0981   46.9338 C.3         1 XMP       0.1182
      8 O4'         4.7873   39.4424   46.5373 O.3         1 XMP      -0.3363
      9 C1'         3.7696   39.9360   45.6455 C.3         1 XMP       0.2010
     10 N9          4.2645   40.3666   44.3616 N.pl3       1 XMP      -0.1896
     11 C4          5.5193   40.3071   43.8768 C.2         1 XMP       0.2049
     12 N3          6.7180   39.9221   44.4158 N.am        1 XMP      -0.1835
     13 N1          7.7692   40.2870   42.3783 N.am        1 XMP      -0.1870
     14 C2          7.8187   39.9072   43.6602 C.2         1 XMP       0.3214
     15 O2          8.8820   39.5585   44.1491 O.2         1 XMP      -0.3846
     16 C6          6.6388   40.7010   41.8006 C.2         1 XMP       0.1997
     17 O6          6.6409   41.0308   40.6231 O.2         1 XMP      -0.4080
     18 C5          5.4736   40.7283   42.5499 C.2         1 XMP       0.1084
     19 N7          4.2213   41.0938   42.2512 N.2         1 XMP      -0.3331
     20 C8          3.5029   40.8897   43.3694 C.2         1 XMP       0.0923
     21 C2'         2.7045   38.8233   45.5178 C.3         1 XMP       0.1387
     22 O2'         1.3721   39.3210   45.4701 O.3         1 XMP      -0.3836
     23 C3'         2.9640   37.9592   46.7486 C.3         1 XMP       0.1149
     24 O3'         2.2773   38.4724   47.8937 O.3         1 XMP      -0.3864
     25 H1          5.9612   37.6578   45.3959 H           1 XMP       0.0639
     26 H2          6.1845   36.7448   46.8675 H           1 XMP       0.0639
     27 H3          4.7187   37.9983   48.0045 H           1 XMP       0.0650
     28 H4          3.3279   40.8051   46.1476 H           1 XMP       0.0998
     29 H5          6.7698   39.6664   45.3524 H           1 XMP       0.2360
     30 H6          8.5833   40.2609   41.8529 H           1 XMP       0.2254
     31 H7          2.5030   41.0765   43.4319 H           1 XMP       0.1125
     32 H8          2.8759   38.2206   44.6217 H           1 XMP       0.0676
     33 H9          1.2000   39.5205   44.5211 H           1 XMP       0.2101
     34 H10         2.6397   36.9270   46.5935 H           1 XMP       0.0648
     35 H11         2.3348   37.7728   48.5757 H           1 XMP       0.2100
@<TRIPOS>BOND
     1     1     2  ar
     2     1     3  ar
     3     1     4   1
     4     1     5  ar
     5     4     6   1
     6     6     7   1
     7     7     8   1
     8     7    23   1
     9     8     9   1
    10     9    10   1
    11     9    21   1
    12    10    11   1
    13    10    20   1
    14    11    12  am
    15    11    18   2
    16    12    14  am
    17    14    13  am
    18    13    16  am
    19    14    15   2
    20    16    17   2
    21    16    18   1
    22    18    19   1
    23    19    20   2
    24    21    22   1
    25    21    23   1
    26    23    24   1
    27     6    25   1
    28     6    26   1
    29     7    27   1
    30     9    28   1
    31    12    29   1
    32    13    30   1
    33    20    31   1
    34    21    32   1
    35    22    33   1
    36    23    34   1
    37    24    35   1
@<TRIPOS>SUBSTRUCTURE
     1  XMP      6

