@<TRIPOS>MOLECULE
1lol_ligand_028
    35    37
SMALL
GAST_HUCK
****
This file was generated by PARSER (from files_GN.cpp)

@<TRIPOS>ATOM
      1 P          -5.8725   39.6073   44.3450 P.3         1 XMP       0.2008
      2 O1P        -6.2704   38.5051   45.1855 O.co2       1 XMP      -0.5537
      3 O2P        -6.6931   39.5445   43.1537 O.co2       1 XMP      -0.5537
      4 O5'        -4.3270   39.5311   44.1057 O.3         1 XMP      -0.2734
      5 O3P        -6.2124   40.8092   45.0682 O.co2       1 XMP      -0.5537
      6 C5'        -3.8931   39.3882   42.7324 C.3         1 XMP       0.1072
      7 C4'        -2.5027   38.7077   42.6912 C.3         1 XMP       0.1182
      8 O4'        -2.3867   38.0264   41.4338 O.3         1 XMP      -0.3363
      9 C1'        -1.0994   38.2728   40.8635 C.3         1 XMP       0.2010
     10 N9         -1.1934   37.9717   39.4641 N.pl3       1 XMP      -0.1896
     11 C4         -1.5550   36.7717   38.9729 C.2         1 XMP       0.2049
     12 N3         -1.8966   35.5887   39.5792 N.am        1 XMP      -0.1835
     13 N1         -2.2352   34.6084   37.5030 N.am        1 XMP      -0.1870
     14 C2         -2.2208   34.5284   38.8389 C.2         1 XMP       0.3214
     15 O2         -2.5119   33.4747   39.3838 O.2         1 XMP      -0.3846
     16 C6         -1.9253   35.7327   36.8490 C.2         1 XMP       0.1997
     17 O6         -1.9708   35.7553   35.6304 O.2         1 XMP      -0.4080
     18 C5         -1.5646   36.8561   37.5805 C.2         1 XMP       0.1084
     19 N7         -1.1988   38.1022   37.2341 N.2         1 XMP      -0.3331
     20 C8         -0.9760   38.7638   38.3921 C.2         1 XMP       0.0923
     21 C2'        -0.7628   39.6995   41.3529 C.3         1 XMP       0.1387
     22 O2'         0.6349   40.0135   41.2850 O.3         1 XMP      -0.3836
     23 C3'        -1.2797   39.6515   42.8098 C.3         1 XMP       0.1149
     24 O3'        -0.2887   39.1064   43.6802 O.3         1 XMP      -0.3864
     25 H1         -3.8425   40.3784   42.2667 H           1 XMP       0.0639
     26 H2         -4.5748   38.7515   42.1320 H           1 XMP       0.0639
     27 H3         -2.4626   37.9360   43.4643 H           1 XMP       0.0650
     28 H4         -0.3855   37.5648   41.3091 H           1 XMP       0.0998
     29 H5         -1.9036   35.5224   40.5513 H           1 XMP       0.2360
     30 H6         -2.4837   33.8214   36.9907 H           1 XMP       0.2254
     31 H7         -0.6786   39.7446   38.4313 H           1 XMP       0.1125
     32 H8         -1.3358   40.4546   40.8035 H           1 XMP       0.0676
     33 H9          0.7281   40.6818   40.5661 H           1 XMP       0.2101
     34 H10        -1.5489   40.6487   43.1680 H           1 XMP       0.0648
     35 H11        -0.7755   38.7205   44.4389 H           1 XMP       0.2100
@<TRIPOS>BOND
     1     1     2  ar
     2     1     3  ar
     3     1     4   1
     4     1     5  ar
     5     4     6   1
     6     6     7   1
     7     7     8   1
     8     7    23   1
     9     8     9   1
    10     9    10   1
    11     9    21   1
    12    10    11   1
    13    10    20   1
    14    11    12  am
    15    11    18   2
    16    12    14  am
    17    14    13  am
    18    13    16  am
    19    14    15   2
    20    16    17   2
    21    16    18   1
    22    18    19   1
    23    19    20   2
    24    21    22   1
    25    21    23   1
    26    23    24   1
    27     6    25   1
    28     6    26   1
    29     7    27   1
    30     9    28   1
    31    12    29   1
    32    13    30   1
    33    20    31   1
    34    21    32   1
    35    22    33   1
    36    23    34   1
    37    24    35   1
@<TRIPOS>SUBSTRUCTURE
     1  XMP      6

