@<TRIPOS>MOLECULE
1lol_ligand_077
    35    37
SMALL
GAST_HUCK
****
This file was generated by PARSER (from files_GN.cpp)

@<TRIPOS>ATOM
      1 P           0.8984   42.9501   49.1321 P.3         1 XMP       0.2008
      2 O1P        -0.2318   43.7468   48.7287 O.co2       1 XMP      -0.5537
      3 O2P         1.0829   43.1021   50.5555 O.co2       1 XMP      -0.5537
      4 O5'         2.1178   43.3658   48.2562 O.3         1 XMP      -0.2734
      5 O3P         0.5838   41.5765   48.8314 O.co2       1 XMP      -0.5537
      6 C5'         2.8024   44.5864   48.6066 C.3         1 XMP       0.1072
      7 C4'         3.6873   45.0966   47.4323 C.3         1 XMP       0.1182
      8 O4'         4.4453   44.0370   46.8432 O.3         1 XMP      -0.3363
      9 C1'         3.7843   43.5457   45.6628 C.3         1 XMP       0.2010
     10 N9          3.3992   42.1700   45.8985 N.pl3       1 XMP      -0.1896
     11 C4          2.2082   41.5142   45.9031 C.2         1 XMP       0.2049
     12 N3          0.8995   41.8732   45.6906 N.am        1 XMP      -0.1835
     13 N1          0.1725   39.7409   46.2419 N.am        1 XMP      -0.1870
     14 C2         -0.0900   40.9953   45.8685 C.2         1 XMP       0.3214
     15 O2         -1.2444   41.3514   45.6914 O.2         1 XMP      -0.3846
     16 C6          1.4185   39.3083   46.4443 C.2         1 XMP       0.1997
     17 O6          1.6146   38.1680   46.8310 O.2         1 XMP      -0.4080
     18 C5          2.4704   40.1941   46.2742 C.2         1 XMP       0.1084
     19 N7          3.7819   40.0417   46.4778 N.2         1 XMP      -0.3331
     20 C8          4.3295   41.2427   46.2342 C.2         1 XMP       0.0923
     21 C2'         2.7411   44.6208   45.2562 C.3         1 XMP       0.1387
     22 O2'         2.8749   45.0335   43.8933 O.3         1 XMP      -0.3836
     23 C3'         2.9379   45.7670   46.2637 C.3         1 XMP       0.1149
     24 O3'         3.7071   46.8358   45.7153 O.3         1 XMP      -0.3864
     25 H1          3.4546   44.3914   49.4647 H           1 XMP       0.0639
     26 H2          2.1034   45.3818   48.8935 H           1 XMP       0.0639
     27 H3          4.4110   45.8016   47.8494 H           1 XMP       0.0650
     28 H4          4.5507   43.5258   44.8780 H           1 XMP       0.0998
     29 H5          0.6669   42.7685   45.4159 H           1 XMP       0.2360
     30 H6         -0.5641   39.1171   46.3578 H           1 XMP       0.2254
     31 H7          5.3296   41.4308   46.3445 H           1 XMP       0.1125
     32 H8          1.7282   44.2606   45.3647 H           1 XMP       0.0676
     33 H9          3.7384   45.4914   43.8284 H           1 XMP       0.2101
     34 H10         1.9799   46.1789   46.5861 H           1 XMP       0.0648
     35 H11         3.0776   47.3713   45.1842 H           1 XMP       0.2100
@<TRIPOS>BOND
     1     1     2  ar
     2     1     3  ar
     3     1     4   1
     4     1     5  ar
     5     4     6   1
     6     6     7   1
     7     7     8   1
     8     7    23   1
     9     8     9   1
    10     9    10   1
    11     9    21   1
    12    10    11   1
    13    10    20   1
    14    11    12  am
    15    11    18   2
    16    12    14  am
    17    14    13  am
    18    13    16  am
    19    14    15   2
    20    16    17   2
    21    16    18   1
    22    18    19   1
    23    19    20   2
    24    21    22   1
    25    21    23   1
    26    23    24   1
    27     6    25   1
    28     6    26   1
    29     7    27   1
    30     9    28   1
    31    12    29   1
    32    13    30   1
    33    20    31   1
    34    21    32   1
    35    22    33   1
    36    23    34   1
    37    24    35   1
@<TRIPOS>SUBSTRUCTURE
     1  XMP      6

