@<TRIPOS>MOLECULE
1lol_ligand_043
    35    37
SMALL
GAST_HUCK
****
This file was generated by PARSER (from files_GN.cpp)

@<TRIPOS>ATOM
      1 P           5.7269   34.9856   41.9450 P.3         1 XMP       0.2008
      2 O1P         6.0012   33.8169   41.1443 O.co2       1 XMP      -0.5537
      3 O2P         6.9959   35.6298   42.1745 O.co2       1 XMP      -0.5537
      4 O5'         5.1051   34.4828   43.2826 O.3         1 XMP      -0.2734
      5 O3P         4.8693   35.8511   41.1698 O.co2       1 XMP      -0.5537
      6 C5'         4.2459   35.3726   44.0360 C.3         1 XMP       0.1072
      7 C4'         4.8696   36.7138   44.5496 C.3         1 XMP       0.1182
      8 O4'         4.2684   37.8302   43.8838 O.3         1 XMP      -0.3363
      9 C1'         4.4992   39.0036   44.6909 C.3         1 XMP       0.2010
     10 N9          3.3422   39.8591   44.5634 N.pl3       1 XMP      -0.1896
     11 C4          2.1930   39.8850   45.2730 C.2         1 XMP       0.2049
     12 N3          1.7394   39.1980   46.3716 N.am        1 XMP      -0.1835
     13 N1         -0.2518   40.3900   46.3114 N.am        1 XMP      -0.1870
     14 C2          0.5324   39.4716   46.8801 C.2         1 XMP       0.3214
     15 O2          0.1437   38.8723   47.8699 O.2         1 XMP      -0.3846
     16 C6          0.1171   41.0750   45.2318 C.2         1 XMP       0.1997
     17 O6         -0.6600   41.8826   44.7448 O.2         1 XMP      -0.4080
     18 C5          1.3608   40.8372   44.6820 C.2         1 XMP       0.1084
     19 N7          1.9744   41.3537   43.6119 N.2         1 XMP      -0.3331
     20 C8          3.1682   40.7426   43.5525 C.2         1 XMP       0.0923
     21 C2'         4.9010   38.5385   46.1161 C.3         1 XMP       0.1387
     22 O2'         6.2726   38.8350   46.3925 O.3         1 XMP      -0.3836
     23 C3'         4.6441   37.0219   46.0455 C.3         1 XMP       0.1149
     24 O3'         5.4966   36.2506   46.8868 O.3         1 XMP      -0.3864
     25 H1          3.9248   34.7769   44.8925 H           1 XMP       0.0639
     26 H2          3.3389   35.5746   43.4570 H           1 XMP       0.0639
     27 H3          5.9430   36.7102   44.3437 H           1 XMP       0.0650
     28 H4          5.3621   39.5209   44.2553 H           1 XMP       0.0998
     29 H5          2.2999   38.5215   46.7829 H           1 XMP       0.2360
     30 H6         -1.1259   40.5669   46.6847 H           1 XMP       0.2254
     31 H7          3.8445   40.9230   42.8072 H           1 XMP       0.1125
     32 H8          4.3072   39.0174   46.8940 H           1 XMP       0.0676
     33 H9          6.8007   38.3613   45.7092 H           1 XMP       0.2101
     34 H10         3.6012   36.8137   46.3090 H           1 XMP       0.0648
     35 H11         5.2553   36.5121   47.7962 H           1 XMP       0.2100
@<TRIPOS>BOND
     1     1     2  ar
     2     1     3  ar
     3     1     4   1
     4     1     5  ar
     5     4     6   1
     6     6     7   1
     7     7     8   1
     8     7    23   1
     9     8     9   1
    10     9    10   1
    11     9    21   1
    12    10    11   1
    13    10    20   1
    14    11    12  am
    15    11    18   2
    16    12    14  am
    17    14    13  am
    18    13    16  am
    19    14    15   2
    20    16    17   2
    21    16    18   1
    22    18    19   1
    23    19    20   2
    24    21    22   1
    25    21    23   1
    26    23    24   1
    27     6    25   1
    28     6    26   1
    29     7    27   1
    30     9    28   1
    31    12    29   1
    32    13    30   1
    33    20    31   1
    34    21    32   1
    35    22    33   1
    36    23    34   1
    37    24    35   1
@<TRIPOS>SUBSTRUCTURE
     1  XMP      6

