@<TRIPOS>MOLECULE
1lol_ligand_018
    35    37
SMALL
GAST_HUCK
****
This file was generated by PARSER (from files_GN.cpp)

@<TRIPOS>ATOM
      1 P           4.4659   35.6319   44.0727 P.3         1 XMP       0.2008
      2 O1P         5.6819   36.4102   43.9294 O.co2       1 XMP      -0.5537
      3 O2P         3.7319   35.8243   42.8204 O.co2       1 XMP      -0.5537
      4 O5'         3.6622   36.0716   45.3247 O.3         1 XMP      -0.2734
      5 O3P         4.8554   34.2509   44.1417 O.co2       1 XMP      -0.5537
      6 C5'         2.6816   37.1189   45.1230 C.3         1 XMP       0.1072
      7 C4'         2.1081   37.6316   46.4778 C.3         1 XMP       0.1182
      8 O4'         3.1205   38.2336   47.2951 O.3         1 XMP      -0.3363
      9 C1'         3.1617   39.6574   47.0557 C.3         1 XMP       0.2010
     10 N9          4.3741   40.0828   46.4045 N.pl3       1 XMP      -0.1896
     11 C4          5.4507   39.3429   46.0670 C.2         1 XMP       0.2049
     12 N3          5.7865   38.0333   46.2782 N.am        1 XMP      -0.1835
     13 N1          7.7708   38.3521   45.1094 N.am        1 XMP      -0.1870
     14 C2          6.9354   37.5559   45.7962 C.2         1 XMP       0.3214
     15 O2          7.2234   36.3834   45.9594 O.2         1 XMP      -0.3846
     16 C6          7.5074   39.6413   44.8933 C.2         1 XMP       0.1997
     17 O6          8.2911   40.3262   44.2521 O.2         1 XMP      -0.4080
     18 C5          6.3339   40.1798   45.3897 C.2         1 XMP       0.1084
     19 N7          5.8198   41.4163   45.3505 N.2         1 XMP      -0.3331
     20 C8          4.6411   41.3468   45.9940 C.2         1 XMP       0.0923
     21 C2'         1.8792   40.0041   46.2472 C.3         1 XMP       0.1387
     22 O2'         1.1884   41.1531   46.7483 O.3         1 XMP      -0.3836
     23 C3'         1.0342   38.7272   46.3186 C.3         1 XMP       0.1149
     24 O3'         0.1402   38.7545   47.4345 O.3         1 XMP      -0.3864
     25 H1          1.8480   36.7195   44.5358 H           1 XMP       0.0639
     26 H2          3.1145   37.9651   44.5791 H           1 XMP       0.0639
     27 H3          1.6920   36.7732   47.0120 H           1 XMP       0.0650
     28 H4          3.1164   40.1447   48.0312 H           1 XMP       0.0998
     29 H5          5.2050   37.4544   46.7880 H           1 XMP       0.2360
     30 H6          8.6009   37.9773   44.7725 H           1 XMP       0.2254
     31 H7          4.0238   42.1515   46.1196 H           1 XMP       0.1125
     32 H8          2.1274   40.1973   45.1976 H           1 XMP       0.0676
     33 H9          1.8079   41.9016   46.6210 H           1 XMP       0.2101
     34 H10         0.4395   38.6054   45.4087 H           1 XMP       0.0648
     35 H11        -0.6435   38.2569   47.1271 H           1 XMP       0.2100
@<TRIPOS>BOND
     1     1     2  ar
     2     1     3  ar
     3     1     4   1
     4     1     5  ar
     5     4     6   1
     6     6     7   1
     7     7     8   1
     8     7    23   1
     9     8     9   1
    10     9    10   1
    11     9    21   1
    12    10    11   1
    13    10    20   1
    14    11    12  am
    15    11    18   2
    16    12    14  am
    17    14    13  am
    18    13    16  am
    19    14    15   2
    20    16    17   2
    21    16    18   1
    22    18    19   1
    23    19    20   2
    24    21    22   1
    25    21    23   1
    26    23    24   1
    27     6    25   1
    28     6    26   1
    29     7    27   1
    30     9    28   1
    31    12    29   1
    32    13    30   1
    33    20    31   1
    34    21    32   1
    35    22    33   1
    36    23    34   1
    37    24    35   1
@<TRIPOS>SUBSTRUCTURE
     1  XMP      6

