@<TRIPOS>MOLECULE
1lol_ligand_066
    35    37
SMALL
GAST_HUCK
****
This file was generated by PARSER (from files_GN.cpp)

@<TRIPOS>ATOM
      1 P           2.6288   37.6818   45.1484 P.3         1 XMP       0.2008
      2 O1P         3.9235   38.2289   44.8480 O.co2       1 XMP      -0.5537
      3 O2P         2.2795   36.6938   44.1577 O.co2       1 XMP      -0.5537
      4 O5'         1.5679   38.8085   45.3633 O.3         1 XMP      -0.2734
      5 O3P         2.7635   36.9673   46.3923 O.co2       1 XMP      -0.5537
      6 C5'         1.1960   39.6280   44.2330 C.3         1 XMP       0.1072
      7 C4'         0.0664   38.9885   43.3805 C.3         1 XMP       0.1182
      8 O4'        -1.1059   38.9100   44.2125 O.3         1 XMP      -0.3363
      9 C1'        -2.2397   39.3260   43.4450 C.3         1 XMP       0.2010
     10 N9         -3.2766   39.8630   44.2770 N.pl3       1 XMP      -0.1896
     11 C4         -3.1329   40.7053   45.3148 C.2         1 XMP       0.2049
     12 N3         -2.0323   41.2965   45.8756 N.am        1 XMP      -0.1835
     13 N1         -3.4052   42.4404   47.3551 N.am        1 XMP      -0.1870
     14 C2         -2.1877   42.1653   46.8739 C.2         1 XMP       0.3214
     15 O2         -1.2085   42.7296   47.3376 O.2         1 XMP      -0.3846
     16 C6         -4.5142   41.8856   46.8574 C.2         1 XMP       0.1997
     17 O6         -5.6045   42.1721   47.3207 O.2         1 XMP      -0.4080
     18 C5         -4.4033   41.0022   45.7929 C.2         1 XMP       0.1084
     19 N7         -5.3049   40.3492   45.0478 N.2         1 XMP      -0.3331
     20 C8         -4.6058   39.6618   44.1253 C.2         1 XMP       0.0923
     21 C2'        -1.6894   40.3744   42.4608 C.3         1 XMP       0.1387
     22 O2'        -2.5688   40.5526   41.3529 O.3         1 XMP      -0.3836
     23 C3'        -0.3139   39.7897   42.1057 C.3         1 XMP       0.1149
     24 O3'        -0.3899   38.9333   40.9626 O.3         1 XMP      -0.3864
     25 H1          2.0576   39.8950   43.6153 H           1 XMP       0.0639
     26 H2          0.8207   40.5666   44.6456 H           1 XMP       0.0639
     27 H3          0.3599   37.9736   43.0932 H           1 XMP       0.0650
     28 H4         -2.6122   38.4577   42.8866 H           1 XMP       0.0998
     29 H5         -1.1488   41.1118   45.5234 H           1 XMP       0.2360
     30 H6         -3.4859   43.0642   48.0932 H           1 XMP       0.2254
     31 H7         -5.0364   39.0817   43.4024 H           1 XMP       0.1125
     32 H8         -1.5504   41.3336   42.9682 H           1 XMP       0.0676
     33 H9         -2.4945   41.5023   41.1253 H           1 XMP       0.2101
     34 H10         0.4028   40.5894   41.8834 H           1 XMP       0.0648
     35 H11        -0.9839   38.1948   41.2208 H           1 XMP       0.2100
@<TRIPOS>BOND
     1     1     2  ar
     2     1     3  ar
     3     1     4   1
     4     1     5  ar
     5     4     6   1
     6     6     7   1
     7     7     8   1
     8     7    23   1
     9     8     9   1
    10     9    10   1
    11     9    21   1
    12    10    11   1
    13    10    20   1
    14    11    12  am
    15    11    18   2
    16    12    14  am
    17    14    13  am
    18    13    16  am
    19    14    15   2
    20    16    17   2
    21    16    18   1
    22    18    19   1
    23    19    20   2
    24    21    22   1
    25    21    23   1
    26    23    24   1
    27     6    25   1
    28     6    26   1
    29     7    27   1
    30     9    28   1
    31    12    29   1
    32    13    30   1
    33    20    31   1
    34    21    32   1
    35    22    33   1
    36    23    34   1
    37    24    35   1
@<TRIPOS>SUBSTRUCTURE
     1  XMP      6

