@<TRIPOS>MOLECULE
1lol_ligand_038
    35    37
SMALL
GAST_HUCK
****
This file was generated by PARSER (from files_GN.cpp)

@<TRIPOS>ATOM
      1 P           3.2784   42.3103   42.9451 P.3         1 XMP       0.2008
      2 O1P         3.0144   43.6513   42.4910 O.co2       1 XMP      -0.5537
      3 O2P         3.2348   41.4171   41.8118 O.co2       1 XMP      -0.5537
      4 O5'         2.2922   41.9551   44.0936 O.3         1 XMP      -0.2734
      5 O3P         4.6353   42.3303   43.4489 O.co2       1 XMP      -0.5537
      6 C5'         2.0593   40.5509   44.3586 C.3         1 XMP       0.1072
      7 C4'         1.4148   40.3097   45.7538 C.3         1 XMP       0.1182
      8 O4'         2.3148   40.7036   46.7873 O.3         1 XMP      -0.3363
      9 C1'         1.8846   41.9395   47.3872 C.3         1 XMP       0.2010
     10 N9          2.9010   42.9598   47.3269 N.pl3       1 XMP      -0.1896
     11 C4          2.8455   44.1808   47.8869 C.2         1 XMP       0.2049
     12 N3          1.9114   44.7968   48.6794 N.am        1 XMP      -0.1835
     13 N1          3.2437   46.6981   48.7829 N.am        1 XMP      -0.1870
     14 C2          2.1278   46.0412   49.1159 C.2         1 XMP       0.3214
     15 O2          1.3083   46.5725   49.8487 O.2         1 XMP      -0.3846
     16 C6          4.1912   46.1502   48.0203 C.2         1 XMP       0.1997
     17 O6          5.1975   46.7847   47.7384 O.2         1 XMP      -0.4080
     18 C5          4.0161   44.8563   47.5539 C.2         1 XMP       0.1084
     19 N7          4.7903   44.0344   46.8323 N.2         1 XMP      -0.3331
     20 C8          4.1015   42.8889   46.7036 C.2         1 XMP       0.0923
     21 C2'         0.5558   42.3454   46.7029 C.3         1 XMP       0.1387
     22 O2'        -0.4029   42.9091   47.5968 O.3         1 XMP      -0.3836
     23 C3'         0.0855   41.0427   46.0383 C.3         1 XMP       0.1149
     24 O3'        -0.7270   40.2676   46.9285 O.3         1 XMP      -0.3864
     25 H1          2.9933   39.9668   44.3290 H           1 XMP       0.0639
     26 H2          1.3895   40.1513   43.5839 H           1 XMP       0.0639
     27 H3          1.2599   39.2310   45.8453 H           1 XMP       0.0650
     28 H4          1.6955   41.7168   48.4452 H           1 XMP       0.0998
     29 H5          1.1159   44.3186   48.9543 H           1 XMP       0.2360
     30 H6          3.3806   47.6022   49.1264 H           1 XMP       0.2254
     31 H7          4.4649   42.0694   46.2129 H           1 XMP       0.1125
     32 H8          0.7495   43.0868   45.9212 H           1 XMP       0.0676
     33 H9         -0.5588   42.2287   48.2817 H           1 XMP       0.2101
     34 H10        -0.4898   41.2414   45.1238 H           1 XMP       0.0648
     35 H11        -0.9514   39.4400   46.4484 H           1 XMP       0.2100
@<TRIPOS>BOND
     1     1     2  ar
     2     1     3  ar
     3     1     4   1
     4     1     5  ar
     5     4     6   1
     6     6     7   1
     7     7     8   1
     8     7    23   1
     9     8     9   1
    10     9    10   1
    11     9    21   1
    12    10    11   1
    13    10    20   1
    14    11    12  am
    15    11    18   2
    16    12    14  am
    17    14    13  am
    18    13    16  am
    19    14    15   2
    20    16    17   2
    21    16    18   1
    22    18    19   1
    23    19    20   2
    24    21    22   1
    25    21    23   1
    26    23    24   1
    27     6    25   1
    28     6    26   1
    29     7    27   1
    30     9    28   1
    31    12    29   1
    32    13    30   1
    33    20    31   1
    34    21    32   1
    35    22    33   1
    36    23    34   1
    37    24    35   1
@<TRIPOS>SUBSTRUCTURE
     1  XMP      6

