@<TRIPOS>MOLECULE
1lol_ligand_023
    35    37
SMALL
GAST_HUCK
****
This file was generated by PARSER (from files_GN.cpp)

@<TRIPOS>ATOM
      1 P           4.5109   35.9376   44.2500 P.3         1 XMP       0.2008
      2 O1P         4.5943   35.7137   45.6771 O.co2       1 XMP      -0.5537
      3 O2P         5.7121   36.5728   43.7805 O.co2       1 XMP      -0.5537
      4 O5'         3.2739   36.7455   43.7580 O.3         1 XMP      -0.2734
      5 O3P         4.4877   34.6256   43.6604 O.co2       1 XMP      -0.5537
      6 C5'         2.2491   37.1826   44.6733 C.3         1 XMP       0.1072
      7 C4'         2.3444   38.7119   44.9796 C.3         1 XMP       0.1182
      8 O4'         1.2126   39.4153   44.4518 O.3         1 XMP      -0.3363
      9 C1'         0.9044   40.5846   45.2388 C.3         1 XMP       0.2010
     10 N9         -0.5190   40.6172   45.5265 N.pl3       1 XMP      -0.1896
     11 C4         -1.5027   40.3191   44.6482 C.2         1 XMP       0.2049
     12 N3         -1.4885   39.9117   43.3414 N.am        1 XMP      -0.1835
     13 N1         -3.8102   39.8559   43.3215 N.am        1 XMP      -0.1870
     14 C2         -2.6394   39.6956   42.6980 C.2         1 XMP       0.3214
     15 O2         -2.6197   39.3599   41.5251 O.2         1 XMP      -0.3846
     16 C6         -3.8960   40.2520   44.5926 C.2         1 XMP       0.1997
     17 O6         -4.9909   40.4017   45.1112 O.2         1 XMP      -0.4080
     18 C5         -2.7276   40.5120   45.2916 C.2         1 XMP       0.1084
     19 N7         -2.4914   40.9736   46.5214 N.2         1 XMP      -0.3331
     20 C8         -1.1540   41.0465   46.6446 C.2         1 XMP       0.0923
     21 C2'         1.9026   40.5524   46.4384 C.3         1 XMP       0.1387
     22 O2'         3.0061   41.4378   46.2083 O.3         1 XMP      -0.3836
     23 C3'         2.3683   39.0892   46.4718 C.3         1 XMP       0.1149
     24 O3'         3.6407   38.8968   47.0886 O.3         1 XMP      -0.3864
     25 H1          2.2108   36.5851   45.5899 H           1 XMP       0.0639
     26 H2          1.3083   36.9911   44.1521 H           1 XMP       0.0639
     27 H3          3.2419   39.1231   44.5026 H           1 XMP       0.0650
     28 H4          1.1115   41.4563   44.6140 H           1 XMP       0.0998
     29 H5         -0.6427   39.7992   42.8777 H           1 XMP       0.2360
     30 H6         -4.6318   39.6865   42.8275 H           1 XMP       0.2254
     31 H7         -0.7081   41.4174   47.4842 H           1 XMP       0.1125
     32 H8          1.4599   40.8243   47.3941 H           1 XMP       0.0676
     33 H9          2.6102   42.3367   46.1981 H           1 XMP       0.2101
     34 H10         1.6289   38.4963   47.0200 H           1 XMP       0.0648
     35 H11         4.2712   39.4463   46.5773 H           1 XMP       0.2100
@<TRIPOS>BOND
     1     1     2  ar
     2     1     3  ar
     3     1     4   1
     4     1     5  ar
     5     4     6   1
     6     6     7   1
     7     7     8   1
     8     7    23   1
     9     8     9   1
    10     9    10   1
    11     9    21   1
    12    10    11   1
    13    10    20   1
    14    11    12  am
    15    11    18   2
    16    12    14  am
    17    14    13  am
    18    13    16  am
    19    14    15   2
    20    16    17   2
    21    16    18   1
    22    18    19   1
    23    19    20   2
    24    21    22   1
    25    21    23   1
    26    23    24   1
    27     6    25   1
    28     6    26   1
    29     7    27   1
    30     9    28   1
    31    12    29   1
    32    13    30   1
    33    20    31   1
    34    21    32   1
    35    22    33   1
    36    23    34   1
    37    24    35   1
@<TRIPOS>SUBSTRUCTURE
     1  XMP      6

