@<TRIPOS>MOLECULE
1lol_ligand_000
    35    37
SMALL
GAST_HUCK
****
This file was generated by PARSER (from files_GN.cpp)

@<TRIPOS>ATOM
      1 P           4.9075   35.6184   44.1536 P.3         1 XMP       0.2008
      2 O1P         6.0393   36.3330   43.6298 O.co2       1 XMP      -0.5537
      3 O2P         3.7303   36.0525   43.4619 O.co2       1 XMP      -0.5537
      4 O5'         4.7675   35.6863   45.7160 O.3         1 XMP      -0.2734
      5 O3P         5.0438   34.2311   43.8065 O.co2       1 XMP      -0.5537
      6 C5'         5.0884   36.9085   46.4050 C.3         1 XMP       0.1072
      7 C4'         3.9441   37.9623   46.4815 C.3         1 XMP       0.1182
      8 O4'         3.2338   38.0613   45.2373 O.3         1 XMP      -0.3363
      9 C1'         1.9291   38.5581   45.5436 C.3         1 XMP       0.2010
     10 N9          0.9852   38.3567   44.4866 N.pl3       1 XMP      -0.1896
     11 C4          0.0764   39.2516   44.0804 C.2         1 XMP       0.2049
     12 N3         -0.1954   40.5174   44.5156 N.am        1 XMP      -0.1835
     13 N1         -1.9806   40.6307   43.0466 N.am        1 XMP      -0.1870
     14 C2         -1.2260   41.1803   44.0003 C.2         1 XMP       0.3214
     15 O2         -1.4801   42.2963   44.4230 O.2         1 XMP      -0.3846
     16 C6         -1.7648   39.4022   42.5710 C.2         1 XMP       0.1997
     17 O6         -2.5010   38.9421   41.7121 O.2         1 XMP      -0.4080
     18 C5         -0.7147   38.6601   43.0974 C.2         1 XMP       0.1084
     19 N7         -0.2814   37.4033   42.9256 N.2         1 XMP      -0.3331
     20 C8          0.7505   37.2357   43.7727 C.2         1 XMP       0.0923
     21 C2'         1.5373   37.8205   46.8404 C.3         1 XMP       0.1387
     22 O2'         0.4990   38.5038   47.5535 O.3         1 XMP      -0.3836
     23 C3'         2.8728   37.7061   47.5838 C.3         1 XMP       0.1149
     24 O3'         2.9815   38.6676   48.6387 O.3         1 XMP      -0.3864
     25 H1          5.9921   37.3759   45.9980 H           1 XMP       0.0639
     26 H2          5.3467   36.6201   47.4244 H           1 XMP       0.0639
     27 H3          4.4088   38.9351   46.6591 H           1 XMP       0.0650
     28 H4          2.0337   39.6270   45.7579 H           1 XMP       0.0998
     29 H5          0.3421   40.9223   45.2193 H           1 XMP       0.2360
     30 H6         -2.7279   41.1465   42.7067 H           1 XMP       0.2254
     31 H7          1.2498   36.3560   43.8778 H           1 XMP       0.1125
     32 H8          1.1767   36.8135   46.6075 H           1 XMP       0.0676
     33 H9         -0.3179   38.3404   47.0360 H           1 XMP       0.2101
     34 H10         2.9655   36.7104   48.0306 H           1 XMP       0.0648
     35 H11         3.8528   38.4955   49.0566 H           1 XMP       0.2100
@<TRIPOS>BOND
     1     1     2  ar
     2     1     3  ar
     3     1     4   1
     4     1     5  ar
     5     4     6   1
     6     6     7   1
     7     7     8   1
     8     7    23   1
     9     8     9   1
    10     9    10   1
    11     9    21   1
    12    10    11   1
    13    10    20   1
    14    11    12  am
    15    11    18   2
    16    12    14  am
    17    14    13  am
    18    13    16  am
    19    14    15   2
    20    16    17   2
    21    16    18   1
    22    18    19   1
    23    19    20   2
    24    21    22   1
    25    21    23   1
    26    23    24   1
    27     6    25   1
    28     6    26   1
    29     7    27   1
    30     9    28   1
    31    12    29   1
    32    13    30   1
    33    20    31   1
    34    21    32   1
    35    22    33   1
    36    23    34   1
    37    24    35   1
@<TRIPOS>SUBSTRUCTURE
     1  XMP      6

