@<TRIPOS>MOLECULE
1lol_ligand_046
    35    37
SMALL
GAST_HUCK
****
This file was generated by PARSER (from files_GN.cpp)

@<TRIPOS>ATOM
      1 P           5.8294   40.7803   42.8498 P.3         1 XMP       0.2008
      2 O1P         6.9059   41.2846   43.6706 O.co2       1 XMP      -0.5537
      3 O2P         6.3910   40.4684   41.5566 O.co2       1 XMP      -0.5537
      4 O5'         4.6833   41.8149   42.6252 O.3         1 XMP      -0.2734
      5 O3P         5.3194   39.5510   43.4078 O.co2       1 XMP      -0.5537
      6 C5'         4.1542   42.4911   43.7857 C.3         1 XMP       0.1072
      7 C4'         5.1307   43.5757   44.3387 C.3         1 XMP       0.1182
      8 O4'         5.8200   44.2501   43.2817 O.3         1 XMP      -0.3363
      9 C1'         5.1716   45.4945   42.9825 C.3         1 XMP       0.2010
     10 N9          4.7844   45.4355   41.5968 N.pl3       1 XMP      -0.1896
     11 C4          5.5378   45.8607   40.5639 C.2         1 XMP       0.2049
     12 N3          6.6998   46.5870   40.4933 N.am        1 XMP      -0.1835
     13 N1          6.7455   46.3095   38.1876 N.am        1 XMP      -0.1870
     14 C2          7.2864   46.7962   39.3120 C.2         1 XMP       0.3214
     15 O2          8.3164   47.4489   39.2498 O.2         1 XMP      -0.3846
     16 C6          5.6065   45.6096   38.1850 C.2         1 XMP       0.1997
     17 O6          5.1497   45.1887   37.1345 O.2         1 XMP      -0.4080
     18 C5          4.9687   45.3677   39.3885 C.2         1 XMP       0.1084
     19 N7          3.8784   44.6680   39.7032 N.2         1 XMP      -0.3331
     20 C8          3.7710   44.7243   41.0417 C.2         1 XMP       0.0923
     21 C2'         4.0770   45.7210   44.0622 C.3         1 XMP       0.1387
     22 O2'         4.0436   47.0437   44.6056 O.3         1 XMP      -0.3836
     23 C3'         4.4610   44.7004   45.1521 C.3         1 XMP       0.1149
     24 O3'         5.3844   45.2545   46.1059 O.3         1 XMP      -0.3864
     25 H1          3.8725   41.7995   44.5876 H           1 XMP       0.0639
     26 H2          3.2330   42.9730   43.4603 H           1 XMP       0.0639
     27 H3          5.8710   43.0731   44.9606 H           1 XMP       0.0650
     28 H4          5.9340   46.2610   43.1186 H           1 XMP       0.0998
     29 H5          7.0749   46.9880   41.2916 H           1 XMP       0.2360
     30 H6          7.1932   46.4760   37.3398 H           1 XMP       0.2254
     31 H7          3.0380   44.2316   41.5590 H           1 XMP       0.1125
     32 H8          3.0787   45.4822   43.6789 H           1 XMP       0.0676
     33 H9          3.2830   47.5056   44.1916 H           1 XMP       0.2101
     34 H10         3.5794   44.3463   45.6975 H           1 XMP       0.0648
     35 H11         6.0876   45.6888   45.5778 H           1 XMP       0.2100
@<TRIPOS>BOND
     1     1     2  ar
     2     1     3  ar
     3     1     4   1
     4     1     5  ar
     5     4     6   1
     6     6     7   1
     7     7     8   1
     8     7    23   1
     9     8     9   1
    10     9    10   1
    11     9    21   1
    12    10    11   1
    13    10    20   1
    14    11    12  am
    15    11    18   2
    16    12    14  am
    17    14    13  am
    18    13    16  am
    19    14    15   2
    20    16    17   2
    21    16    18   1
    22    18    19   1
    23    19    20   2
    24    21    22   1
    25    21    23   1
    26    23    24   1
    27     6    25   1
    28     6    26   1
    29     7    27   1
    30     9    28   1
    31    12    29   1
    32    13    30   1
    33    20    31   1
    34    21    32   1
    35    22    33   1
    36    23    34   1
    37    24    35   1
@<TRIPOS>SUBSTRUCTURE
     1  XMP      6

