@<TRIPOS>MOLECULE
1lol_ligand_015
    35    37
SMALL
GAST_HUCK
****
This file was generated by PARSER (from files_GN.cpp)

@<TRIPOS>ATOM
      1 P           4.7974   35.7031   44.0985 P.3         1 XMP       0.2008
      2 O1P         3.8418   36.0456   43.0684 O.co2       1 XMP      -0.5537
      3 O2P         5.0440   34.2841   43.9922 O.co2       1 XMP      -0.5537
      4 O5'         4.3018   36.0601   45.5236 O.3         1 XMP      -0.2734
      5 O3P         6.0441   36.3658   43.7999 O.co2       1 XMP      -0.5537
      6 C5'         3.6014   37.3045   45.7300 C.3         1 XMP       0.1072
      7 C4'         4.2929   38.6148   45.2504 C.3         1 XMP       0.1182
      8 O4'         3.4378   39.7352   45.5332 O.3         1 XMP      -0.3363
      9 C1'         4.2151   40.9301   45.3282 C.3         1 XMP       0.2010
     10 N9          3.6041   42.0507   46.0034 N.pl3       1 XMP      -0.1896
     11 C4          2.2978   42.3764   45.9340 C.2         1 XMP       0.2049
     12 N3          1.2228   41.7771   45.3371 N.am        1 XMP      -0.1835
     13 N1         -0.1570   43.5010   46.0643 N.am        1 XMP      -0.1870
     14 C2          0.0139   42.3412   45.4175 C.2         1 XMP       0.3214
     15 O2         -0.9411   41.8038   44.8831 O.2         1 XMP      -0.3846
     16 C6          0.8515   44.1313   46.6723 C.2         1 XMP       0.1997
     17 O6          0.6556   45.1961   47.2408 O.2         1 XMP      -0.4080
     18 C5          2.1185   43.5751   46.6315 C.2         1 XMP       0.1084
     19 N7          3.3055   43.9708   47.1104 N.2         1 XMP      -0.3331
     20 C8          4.1973   43.0378   46.7160 C.2         1 XMP       0.0923
     21 C2'         5.6746   40.5304   45.7066 C.3         1 XMP       0.1387
     22 O2'         6.5839   40.8559   44.6500 O.3         1 XMP      -0.3836
     23 C3'         5.5962   39.0071   45.9704 C.3         1 XMP       0.1149
     24 O3'         6.7378   38.2879   45.5072 O.3         1 XMP      -0.3864
     25 H1          3.4408   37.3852   46.8095 H           1 XMP       0.0639
     26 H2          2.6066   37.2487   45.2768 H           1 XMP       0.0639
     27 H3          4.4526   38.5547   44.1703 H           1 XMP       0.0650
     28 H4          4.1659   41.1503   44.2556 H           1 XMP       0.0998
     29 H5          1.3408   40.9440   44.8450 H           1 XMP       0.2360
     30 H6         -1.0395   43.9104   46.0838 H           1 XMP       0.2254
     31 H7          5.1993   43.1082   46.9208 H           1 XMP       0.1125
     32 H8          6.0265   41.0301   46.6108 H           1 XMP       0.0676
     33 H9          6.2761   40.3544   43.8650 H           1 XMP       0.2101
     34 H10         5.4778   38.8277   47.0447 H           1 XMP       0.0648
     35 H11         7.3857   38.3114   46.2512 H           1 XMP       0.2100
@<TRIPOS>BOND
     1     1     2  ar
     2     1     3  ar
     3     1     4   1
     4     1     5  ar
     5     4     6   1
     6     6     7   1
     7     7     8   1
     8     7    23   1
     9     8     9   1
    10     9    10   1
    11     9    21   1
    12    10    11   1
    13    10    20   1
    14    11    12  am
    15    11    18   2
    16    12    14  am
    17    14    13  am
    18    13    16  am
    19    14    15   2
    20    16    17   2
    21    16    18   1
    22    18    19   1
    23    19    20   2
    24    21    22   1
    25    21    23   1
    26    23    24   1
    27     6    25   1
    28     6    26   1
    29     7    27   1
    30     9    28   1
    31    12    29   1
    32    13    30   1
    33    20    31   1
    34    21    32   1
    35    22    33   1
    36    23    34   1
    37    24    35   1
@<TRIPOS>SUBSTRUCTURE
     1  XMP      6

