@<TRIPOS>MOLECULE
1lol_ligand_083
    35    37
SMALL
GAST_HUCK
****
This file was generated by PARSER (from files_GN.cpp)

@<TRIPOS>ATOM
      1 P           1.9341   39.3355   48.2149 P.3         1 XMP       0.2008
      2 O1P         1.8920   37.8999   48.3404 O.co2       1 XMP      -0.5537
      3 O2P         2.5045   39.8534   49.4346 O.co2       1 XMP      -0.5537
      4 O5'         0.4782   39.8518   48.0103 O.3         1 XMP      -0.2734
      5 O3P         2.8282   39.6025   47.1143 O.co2       1 XMP      -0.5537
      6 C5'         0.2493   41.0332   47.2156 C.3         1 XMP       0.1072
      7 C4'         0.9622   42.3318   47.6908 C.3         1 XMP       0.1182
      8 O4'         2.3822   42.2363   47.5211 O.3         1 XMP      -0.3363
      9 C1'         2.9288   43.5234   47.1832 C.3         1 XMP       0.2010
     10 N9          3.7257   43.4672   45.9824 N.pl3       1 XMP      -0.1896
     11 C4          3.8941   42.4453   45.1225 C.2         1 XMP       0.2049
     12 N3          3.3838   41.1786   45.0807 N.am        1 XMP      -0.1835
     13 N1          4.5860   40.7339   43.1492 N.am        1 XMP      -0.1870
     14 C2          3.7357   40.3431   44.1061 C.2         1 XMP       0.3214
     15 O2          3.2884   39.2075   44.0978 O.2         1 XMP      -0.3846
     16 C6          5.1115   41.9638   43.1246 C.2         1 XMP       0.1997
     17 O6          5.8880   42.2751   42.2344 O.2         1 XMP      -0.4080
     18 C5          4.7774   42.8626   44.1274 C.2         1 XMP       0.1084
     19 N7          5.1344   44.1280   44.3842 N.2         1 XMP      -0.3331
     20 C8          4.4914   44.4796   45.5132 C.2         1 XMP       0.0923
     21 C2'         1.7393   44.5129   47.0766 C.3         1 XMP       0.1387
     22 O2'         1.6146   45.2929   48.2709 O.3         1 XMP      -0.3836
     23 C3'         0.5326   43.5834   46.8976 C.3         1 XMP       0.1149
     24 O3'        -0.6895   44.1373   47.3896 O.3         1 XMP      -0.3864
     25 H1         -0.8270   41.2113   47.2716 H           1 XMP       0.0639
     26 H2          0.4741   40.8417   46.1614 H           1 XMP       0.0639
     27 H3          0.7553   42.4804   48.7555 H           1 XMP       0.0650
     28 H4          3.5887   43.8136   48.0087 H           1 XMP       0.0998
     29 H5          2.7655   40.8867   45.7660 H           1 XMP       0.2360
     30 H6          4.8299   40.1020   42.4522 H           1 XMP       0.2254
     31 H7          4.5847   45.3964   45.9563 H           1 XMP       0.1125
     32 H8          1.8293   45.1923   46.2240 H           1 XMP       0.0676
     33 H9          2.3842   45.9066   48.2570 H           1 XMP       0.2101
     34 H10         0.4151   43.3392   45.8368 H           1 XMP       0.0648
     35 H11        -1.1610   44.4977   46.6104 H           1 XMP       0.2100
@<TRIPOS>BOND
     1     1     2  ar
     2     1     3  ar
     3     1     4   1
     4     1     5  ar
     5     4     6   1
     6     6     7   1
     7     7     8   1
     8     7    23   1
     9     8     9   1
    10     9    10   1
    11     9    21   1
    12    10    11   1
    13    10    20   1
    14    11    12  am
    15    11    18   2
    16    12    14  am
    17    14    13  am
    18    13    16  am
    19    14    15   2
    20    16    17   2
    21    16    18   1
    22    18    19   1
    23    19    20   2
    24    21    22   1
    25    21    23   1
    26    23    24   1
    27     6    25   1
    28     6    26   1
    29     7    27   1
    30     9    28   1
    31    12    29   1
    32    13    30   1
    33    20    31   1
    34    21    32   1
    35    22    33   1
    36    23    34   1
    37    24    35   1
@<TRIPOS>SUBSTRUCTURE
     1  XMP      6

