@<TRIPOS>MOLECULE
1lol_ligand_054
    35    37
SMALL
GAST_HUCK
****
This file was generated by PARSER (from files_GN.cpp)

@<TRIPOS>ATOM
      1 P           0.8664   36.9257   44.9081 P.3         1 XMP       0.2008
      2 O1P         1.3028   38.2842   45.1532 O.co2       1 XMP      -0.5537
      3 O2P         2.0385   36.0854   44.8006 O.co2       1 XMP      -0.5537
      4 O5'        -0.0696   36.6951   43.6845 O.3         1 XMP      -0.2734
      5 O3P         0.1679   36.4843   46.0949 O.co2       1 XMP      -0.5537
      6 C5'        -0.1970   37.7348   42.6946 C.3         1 XMP       0.1072
      7 C4'        -1.2916   38.7724   43.0715 C.3         1 XMP       0.1182
      8 O4'        -0.8612   39.5127   44.2250 O.3         1 XMP      -0.3363
      9 C1'        -0.9166   40.9132   43.9454 C.3         1 XMP       0.2010
     10 N9          0.0898   41.6128   44.6931 N.pl3       1 XMP      -0.1896
     11 C4          1.4097   41.3555   44.7265 C.2         1 XMP       0.2049
     12 N3          2.1725   40.3959   44.1221 N.am        1 XMP      -0.1835
     13 N1          4.0521   41.1956   45.2296 N.am        1 XMP      -0.1870
     14 C2          3.4808   40.3318   44.3806 C.2         1 XMP       0.3214
     15 O2          4.1495   39.4480   43.8700 O.2         1 XMP      -0.3846
     16 C6          3.3603   42.1550   45.8477 C.2         1 XMP       0.1997
     17 O6          3.9275   42.9187   46.6142 O.2         1 XMP      -0.4080
     18 C5          1.9945   42.2501   45.6204 C.2         1 XMP       0.1084
     19 N7          1.0348   43.0460   46.1120 N.2         1 XMP      -0.3331
     20 C8         -0.1151   42.6515   45.5389 C.2         1 XMP       0.0923
     21 C2'        -0.8108   41.0353   42.4114 C.3         1 XMP       0.1387
     22 O2'        -1.3501   42.2493   41.8967 O.3         1 XMP      -0.3836
     23 C3'        -1.5773   39.7906   41.9419 C.3         1 XMP       0.1149
     24 O3'        -2.9791   40.0435   41.8201 O.3         1 XMP      -0.3864
     25 H1         -0.5074   37.2377   41.7712 H           1 XMP       0.0639
     26 H2          0.7498   38.2362   42.4803 H           1 XMP       0.0639
     27 H3         -2.2037   38.2241   43.3245 H           1 XMP       0.0650
     28 H4         -1.9061   41.2529   44.2575 H           1 XMP       0.0998
     29 H5          1.7682   39.7724   43.5119 H           1 XMP       0.2360
     30 H6          5.0037   41.1133   45.4127 H           1 XMP       0.2254
     31 H7         -1.0193   43.0870   45.7205 H           1 XMP       0.1125
     32 H8          0.2344   40.9600   42.0938 H           1 XMP       0.0676
     33 H9         -2.1953   42.3740   42.3753 H           1 XMP       0.2101
     34 H10        -1.2141   39.4607   40.9651 H           1 XMP       0.0648
     35 H11        -3.1842   40.7635   42.4550 H           1 XMP       0.2100
@<TRIPOS>BOND
     1     1     2  ar
     2     1     3  ar
     3     1     4   1
     4     1     5  ar
     5     4     6   1
     6     6     7   1
     7     7     8   1
     8     7    23   1
     9     8     9   1
    10     9    10   1
    11     9    21   1
    12    10    11   1
    13    10    20   1
    14    11    12  am
    15    11    18   2
    16    12    14  am
    17    14    13  am
    18    13    16  am
    19    14    15   2
    20    16    17   2
    21    16    18   1
    22    18    19   1
    23    19    20   2
    24    21    22   1
    25    21    23   1
    26    23    24   1
    27     6    25   1
    28     6    26   1
    29     7    27   1
    30     9    28   1
    31    12    29   1
    32    13    30   1
    33    20    31   1
    34    21    32   1
    35    22    33   1
    36    23    34   1
    37    24    35   1
@<TRIPOS>SUBSTRUCTURE
     1  XMP      6

