@<TRIPOS>MOLECULE
1lol_ligand_005
    35    37
SMALL
GAST_HUCK
****
This file was generated by PARSER (from files_GN.cpp)

@<TRIPOS>ATOM
      1 P           4.8163   35.7153   44.1437 P.3         1 XMP       0.2008
      2 O1P         3.8751   36.0625   43.1083 O.co2       1 XMP      -0.5537
      3 O2P         5.0274   34.2936   44.0244 O.co2       1 XMP      -0.5537
      4 O5'         4.2149   35.9970   45.5571 O.3         1 XMP      -0.2734
      5 O3P         6.0775   36.3800   43.9200 O.co2       1 XMP      -0.5537
      6 C5'         3.9158   37.3626   45.9452 C.3         1 XMP       0.1072
      7 C4'         2.3826   37.5804   46.0865 C.3         1 XMP       0.1182
      8 O4'         2.1338   38.8891   46.6305 O.3         1 XMP      -0.3363
      9 C1'         0.8288   39.2911   46.1891 C.3         1 XMP       0.2010
     10 N9          0.6077   40.6981   46.4283 N.pl3       1 XMP      -0.1896
     11 C4          0.7224   41.2968   47.6278 C.2         1 XMP       0.2049
     12 N3          1.0698   40.8249   48.8636 N.am        1 XMP      -0.1835
     13 N1          0.8221   42.9603   49.7438 N.am        1 XMP      -0.1870
     14 C2          1.1191   41.6650   49.8986 C.2         1 XMP       0.3214
     15 O2          1.4410   41.2486   50.9986 O.2         1 XMP      -0.3846
     16 C6          0.4687   43.4773   48.5624 C.2         1 XMP       0.1997
     17 O6          0.2046   44.6664   48.4672 O.2         1 XMP      -0.4080
     18 C5          0.4138   42.6443   47.4575 C.2         1 XMP       0.1084
     19 N7          0.1097   42.8611   46.1723 N.2         1 XMP      -0.3331
     20 C8          0.2299   41.6664   45.5594 C.2         1 XMP       0.0923
     21 C2'         0.8022   38.8206   44.7175 C.3         1 XMP       0.1387
     22 O2'        -0.5179   38.6830   44.1887 O.3         1 XMP      -0.3836
     23 C3'         1.5974   37.5049   44.7497 C.3         1 XMP       0.1149
     24 O3'         0.7575   36.3509   44.7094 O.3         1 XMP      -0.3864
     25 H1          4.3358   38.1309   45.2806 H           1 XMP       0.0639
     26 H2          4.3741   37.5025   46.9337 H           1 XMP       0.0639
     27 H3          1.9974   36.8418   46.8073 H           1 XMP       0.0650
     28 H4          0.0712   38.7349   46.7594 H           1 XMP       0.0998
     29 H5          1.2871   39.8869   48.9851 H           1 XMP       0.2360
     30 H6          0.8643   43.5489   50.5143 H           1 XMP       0.2254
     31 H7          0.0433   41.5352   44.5606 H           1 XMP       0.1125
     32 H8          1.3492   39.5357   44.0957 H           1 XMP       0.0676
     33 H9         -1.0193   39.4552   44.5338 H           1 XMP       0.2101
     34 H10         2.2610   37.4670   43.8861 H           1 XMP       0.0648
     35 H11        -0.1295   36.6445   45.0164 H           1 XMP       0.2100
@<TRIPOS>BOND
     1     1     2  ar
     2     1     3  ar
     3     1     4   1
     4     1     5  ar
     5     4     6   1
     6     6     7   1
     7     7     8   1
     8     7    23   1
     9     8     9   1
    10     9    10   1
    11     9    21   1
    12    10    11   1
    13    10    20   1
    14    11    12  am
    15    11    18   2
    16    12    14  am
    17    14    13  am
    18    13    16  am
    19    14    15   2
    20    16    17   2
    21    16    18   1
    22    18    19   1
    23    19    20   2
    24    21    22   1
    25    21    23   1
    26    23    24   1
    27     6    25   1
    28     6    26   1
    29     7    27   1
    30     9    28   1
    31    12    29   1
    32    13    30   1
    33    20    31   1
    34    21    32   1
    35    22    33   1
    36    23    34   1
    37    24    35   1
@<TRIPOS>SUBSTRUCTURE
     1  XMP      6

