@<TRIPOS>MOLECULE
1lol_ligand_045
    35    37
SMALL
GAST_HUCK
****
This file was generated by PARSER (from files_GN.cpp)

@<TRIPOS>ATOM
      1 P          -0.6964   42.3246   46.6755 P.3         1 XMP       0.2008
      2 O1P        -1.1679   43.2933   47.6377 O.co2       1 XMP      -0.5537
      3 O2P        -0.7710   41.0212   47.2855 O.co2       1 XMP      -0.5537
      4 O5'         0.8050   42.5848   46.3408 O.3         1 XMP      -0.2734
      5 O3P        -1.5863   42.3395   45.5373 O.co2       1 XMP      -0.5537
      6 C5'         1.1903   43.9811   46.3232 C.3         1 XMP       0.1072
      7 C4'         2.7376   44.0737   46.3357 C.3         1 XMP       0.1182
      8 O4'         3.3351   43.0256   45.5547 O.3         1 XMP      -0.3363
      9 C1'         4.7049   43.4082   45.2755 C.3         1 XMP       0.2010
     10 N9          5.1830   42.7744   44.0757 N.pl3       1 XMP      -0.1896
     11 C4          6.2666   43.1027   43.3526 C.2         1 XMP       0.2049
     12 N3          7.1851   44.1232   43.4339 N.am        1 XMP      -0.1835
     13 N1          8.2672   43.3248   41.5355 N.am        1 XMP      -0.1870
     14 C2          8.1616   44.2236   42.5253 C.2         1 XMP       0.3214
     15 O2          8.9589   45.1516   42.5985 O.2         1 XMP      -0.3846
     16 C6          7.4137   42.3043   41.4000 C.2         1 XMP       0.1997
     17 O6          7.5470   41.5235   40.4703 O.2         1 XMP      -0.4080
     18 C5          6.3755   42.1737   42.3182 C.2         1 XMP       0.1084
     19 N7          5.3953   41.2734   42.4218 N.2         1 XMP      -0.3331
     20 C8          4.6799   41.6572   43.4992 C.2         1 XMP       0.0923
     21 C2'         4.7201   44.9656   45.2789 C.3         1 XMP       0.1387
     22 O2'         5.6692   45.4563   46.2302 O.3         1 XMP      -0.3836
     23 C3'         3.2854   45.3613   45.6848 C.3         1 XMP       0.1149
     24 O3'         3.2332   46.5085   46.5379 O.3         1 XMP      -0.3864
     25 H1          0.8157   44.5135   47.2018 H           1 XMP       0.0639
     26 H2          0.8242   44.4781   45.4112 H           1 XMP       0.0639
     27 H3          3.1084   43.9890   47.3589 H           1 XMP       0.0650
     28 H4          5.3213   43.0328   46.0991 H           1 XMP       0.0998
     29 H5          7.1080   44.7974   44.1345 H           1 XMP       0.2360
     30 H6          8.9860   43.4362   40.8852 H           1 XMP       0.2254
     31 H7          3.8675   41.1360   43.8414 H           1 XMP       0.1125
     32 H8          4.9434   45.3881   44.2890 H           1 XMP       0.0676
     33 H9          6.3162   45.9574   45.6936 H           1 XMP       0.2101
     34 H10         2.7210   45.5873   44.7737 H           1 XMP       0.0648
     35 H11         2.2960   46.6052   46.7983 H           1 XMP       0.2100
@<TRIPOS>BOND
     1     1     2  ar
     2     1     3  ar
     3     1     4   1
     4     1     5  ar
     5     4     6   1
     6     6     7   1
     7     7     8   1
     8     7    23   1
     9     8     9   1
    10     9    10   1
    11     9    21   1
    12    10    11   1
    13    10    20   1
    14    11    12  am
    15    11    18   2
    16    12    14  am
    17    14    13  am
    18    13    16  am
    19    14    15   2
    20    16    17   2
    21    16    18   1
    22    18    19   1
    23    19    20   2
    24    21    22   1
    25    21    23   1
    26    23    24   1
    27     6    25   1
    28     6    26   1
    29     7    27   1
    30     9    28   1
    31    12    29   1
    32    13    30   1
    33    20    31   1
    34    21    32   1
    35    22    33   1
    36    23    34   1
    37    24    35   1
@<TRIPOS>SUBSTRUCTURE
     1  XMP      6

