@<TRIPOS>MOLECULE
1lol_ligand_035
    35    37
SMALL
GAST_HUCK
****
This file was generated by PARSER (from files_GN.cpp)

@<TRIPOS>ATOM
      1 P          -0.0819   38.7184   43.1712 P.3         1 XMP       0.2008
      2 O1P         0.1212   39.3219   41.8789 O.co2       1 XMP      -0.5537
      3 O2P        -1.3621   39.1343   43.6853 O.co2       1 XMP      -0.5537
      4 O5'         1.1118   39.0529   44.1124 O.3         1 XMP      -0.2734
      5 O3P        -0.1302   37.2942   42.9652 O.co2       1 XMP      -0.5537
      6 C5'         1.1948   40.3857   44.6594 C.3         1 XMP       0.1072
      7 C4'         0.4921   40.5042   46.0523 C.3         1 XMP       0.1182
      8 O4'         1.4302   40.9482   47.0490 O.3         1 XMP      -0.3363
      9 C1'         1.1526   42.3099   47.4294 C.3         1 XMP       0.2010
     10 N9          2.3132   43.1594   47.3575 N.pl3       1 XMP      -0.1896
     11 C4          2.4309   44.3920   47.8892 C.2         1 XMP       0.2049
     12 N3          1.5834   45.1628   48.6357 N.am        1 XMP      -0.1835
     13 N1          3.1844   46.8432   48.7281 N.am        1 XMP      -0.1870
     14 C2          1.9712   46.3760   49.0368 C.2         1 XMP       0.3214
     15 O2          1.2081   47.0567   49.7028 O.2         1 XMP      -0.3846
     16 C6          4.0587   46.1355   48.0051 C.2         1 XMP       0.1997
     17 O6          5.1501   46.6105   47.7280 O.2         1 XMP      -0.4080
     18 C5          3.6992   44.8711   47.5670 C.2         1 XMP       0.1084
     19 N7          4.3420   43.9351   46.8591 N.2         1 XMP      -0.3331
     20 C8          3.4906   42.9002   46.7428 C.2         1 XMP       0.0923
     21 C2'        -0.0045   42.8038   46.5316 C.3         1 XMP       0.1387
     22 O2'        -0.8757   43.7091   47.2120 O.3         1 XMP      -0.3836
     23 C3'        -0.6931   41.4942   46.1197 C.3         1 XMP       0.1149
     24 O3'        -1.6299   41.0623   47.1082 O.3         1 XMP      -0.3864
     25 H1          0.8583   41.1622   43.9629 H           1 XMP       0.0639
     26 H2          2.2647   40.5542   44.7889 H           1 XMP       0.0639
     27 H3          0.1533   39.5102   46.3551 H           1 XMP       0.0650
     28 H4          0.8128   42.2652   48.4686 H           1 XMP       0.0998
     29 H5          0.7173   44.8212   48.8959 H           1 XMP       0.2360
     30 H6          3.4447   47.7211   49.0567 H           1 XMP       0.2254
     31 H7          3.7226   42.0398   46.2472 H           1 XMP       0.1125
     32 H8          0.3934   43.3005   45.6408 H           1 XMP       0.0676
     33 H9         -1.3791   44.1855   46.5154 H           1 XMP       0.2101
     34 H10        -1.2141   41.5934   45.1638 H           1 XMP       0.0648
     35 H11        -2.3621   41.7133   47.0803 H           1 XMP       0.2100
@<TRIPOS>BOND
     1     1     2  ar
     2     1     3  ar
     3     1     4   1
     4     1     5  ar
     5     4     6   1
     6     6     7   1
     7     7     8   1
     8     7    23   1
     9     8     9   1
    10     9    10   1
    11     9    21   1
    12    10    11   1
    13    10    20   1
    14    11    12  am
    15    11    18   2
    16    12    14  am
    17    14    13  am
    18    13    16  am
    19    14    15   2
    20    16    17   2
    21    16    18   1
    22    18    19   1
    23    19    20   2
    24    21    22   1
    25    21    23   1
    26    23    24   1
    27     6    25   1
    28     6    26   1
    29     7    27   1
    30     9    28   1
    31    12    29   1
    32    13    30   1
    33    20    31   1
    34    21    32   1
    35    22    33   1
    36    23    34   1
    37    24    35   1
@<TRIPOS>SUBSTRUCTURE
     1  XMP      6

