@<TRIPOS>MOLECULE
1lol_ligand_041
    35    37
SMALL
GAST_HUCK
****
This file was generated by PARSER (from files_GN.cpp)

@<TRIPOS>ATOM
      1 P           5.2866   35.2233   41.7784 P.3         1 XMP       0.2008
      2 O1P         6.4952   35.0496   41.0133 O.co2       1 XMP      -0.5537
      3 O2P         4.1695   35.1420   40.8704 O.co2       1 XMP      -0.5537
      4 O5'         5.2344   36.5725   42.5496 O.3         1 XMP      -0.2734
      5 O3P         5.1671   34.1427   42.7217 O.co2       1 XMP      -0.5537
      6 C5'         6.4758   37.0526   43.1031 C.3         1 XMP       0.1072
      7 C4'         6.2091   37.8775   44.3805 C.3         1 XMP       0.1182
      8 O4'         5.2241   38.8899   44.1457 O.3         1 XMP      -0.3363
      9 C1'         4.7639   39.3179   45.4363 C.3         1 XMP       0.2010
     10 N9          3.4092   39.7820   45.3250 N.pl3       1 XMP      -0.1896
     11 C4          2.3368   39.0944   44.8881 C.2         1 XMP       0.2049
     12 N3          2.1629   37.8032   44.4577 N.am        1 XMP      -0.1835
     13 N1         -0.0862   38.2385   44.0650 N.am        1 XMP      -0.1870
     14 C2          0.9556   37.3975   44.0578 C.2         1 XMP       0.3214
     15 O2          0.7944   36.2517   43.6646 O.2         1 XMP      -0.3846
     16 C6          0.0198   39.5045   44.4779 C.2         1 XMP       0.1997
     17 O6         -0.9620   40.2315   44.4795 O.2         1 XMP      -0.4080
     18 C5          1.2513   39.9678   44.9080 C.2         1 XMP       0.1084
     19 N7          1.6626   41.1580   45.3650 N.2         1 XMP      -0.3331
     20 C8          2.9786   41.0316   45.6106 C.2         1 XMP       0.0923
     21 C2'         4.9557   38.1288   46.4168 C.3         1 XMP       0.1387
     22 O2'         5.7509   38.5210   47.5359 O.3         1 XMP      -0.3836
     23 C3'         5.6416   37.0521   45.5531 C.3         1 XMP       0.1149
     24 O3'         6.6481   36.2957   46.2313 O.3         1 XMP      -0.3864
     25 H1          6.9439   37.6925   42.3507 H           1 XMP       0.0639
     26 H2          7.1826   36.2573   43.3665 H           1 XMP       0.0639
     27 H3          7.1521   38.3496   44.6827 H           1 XMP       0.0650
     28 H4          5.4170   40.1429   45.7434 H           1 XMP       0.0998
     29 H5          2.9107   37.1865   44.4498 H           1 XMP       0.2360
     30 H6         -0.9536   37.9160   43.7652 H           1 XMP       0.2254
     31 H7          3.5628   41.7918   45.9659 H           1 XMP       0.1125
     32 H8          3.9989   37.7560   46.7966 H           1 XMP       0.0676
     33 H9          5.6021   37.8294   48.2102 H           1 XMP       0.2101
     34 H10         4.8797   36.3541   45.1875 H           1 XMP       0.0648
     35 H11         7.3435   36.9392   46.4974 H           1 XMP       0.2100
@<TRIPOS>BOND
     1     1     2  ar
     2     1     3  ar
     3     1     4   1
     4     1     5  ar
     5     4     6   1
     6     6     7   1
     7     7     8   1
     8     7    23   1
     9     8     9   1
    10     9    10   1
    11     9    21   1
    12    10    11   1
    13    10    20   1
    14    11    12  am
    15    11    18   2
    16    12    14  am
    17    14    13  am
    18    13    16  am
    19    14    15   2
    20    16    17   2
    21    16    18   1
    22    18    19   1
    23    19    20   2
    24    21    22   1
    25    21    23   1
    26    23    24   1
    27     6    25   1
    28     6    26   1
    29     7    27   1
    30     9    28   1
    31    12    29   1
    32    13    30   1
    33    20    31   1
    34    21    32   1
    35    22    33   1
    36    23    34   1
    37    24    35   1
@<TRIPOS>SUBSTRUCTURE
     1  XMP      6

