@<TRIPOS>MOLECULE
1lol_ligand_008
    35    37
SMALL
GAST_HUCK
****
This file was generated by PARSER (from files_GN.cpp)

@<TRIPOS>ATOM
      1 P           4.8155   35.7535   44.1772 P.3         1 XMP       0.2008
      2 O1P         6.0762   36.3481   43.8024 O.co2       1 XMP      -0.5537
      3 O2P         3.7913   36.1138   43.2228 O.co2       1 XMP      -0.5537
      4 O5'         4.4277   35.9905   45.6589 O.3         1 XMP      -0.2734
      5 O3P         5.0113   34.3221   44.0668 O.co2       1 XMP      -0.5537
      6 C5'         4.7038   37.2640   46.2802 C.3         1 XMP       0.1072
      7 C4'         3.4876   38.1840   46.5722 C.3         1 XMP       0.1182
      8 O4'         3.0332   38.9235   45.4242 O.3         1 XMP      -0.3363
      9 C1'         1.7789   39.4908   45.8542 C.3         1 XMP       0.2010
     10 N9          1.0548   40.1417   44.7866 N.pl3       1 XMP      -0.1896
     11 C4          0.4751   39.6197   43.6807 C.2         1 XMP       0.2049
     12 N3          0.3409   38.3462   43.1920 N.am        1 XMP      -0.1835
     13 N1         -0.9838   39.1411   41.4547 N.am        1 XMP      -0.1870
     14 C2         -0.4155   38.1241   42.1142 C.2         1 XMP       0.3214
     15 O2         -0.5985   36.9819   41.7220 O.2         1 XMP      -0.3846
     16 C6         -0.8623   40.4024   41.8629 C.2         1 XMP       0.1997
     17 O6         -1.4272   41.2969   41.2566 O.2         1 XMP      -0.4080
     18 C5         -0.1408   40.6717   43.0068 C.2         1 XMP       0.1084
     19 N7          0.0697   41.8047   43.6756 N.2         1 XMP      -0.3331
     20 C8          0.7958   41.4711   44.7538 C.2         1 XMP       0.0923
     21 C2'         1.0561   38.3144   46.5342 C.3         1 XMP       0.1387
     22 O2'         0.0845   38.7484   47.4957 O.3         1 XMP      -0.3836
     23 C3'         2.2220   37.4845   47.1250 C.3         1 XMP       0.1149
     24 O3'         2.2012   37.4468   48.5428 O.3         1 XMP      -0.3864
     25 H1          5.4730   37.8312   45.7476 H           1 XMP       0.0639
     26 H2          5.1345   37.0105   47.2492 H           1 XMP       0.0639
     27 H3          3.8418   38.9121   47.3137 H           1 XMP       0.0650
     28 H4          2.0006   40.2483   46.6234 H           1 XMP       0.0998
     29 H5          0.7682   37.5976   43.6357 H           1 XMP       0.2360
     30 H6         -1.5066   38.9518   40.6602 H           1 XMP       0.2254
     31 H7          1.0911   42.1511   45.4551 H           1 XMP       0.1125
     32 H8          0.5363   37.6993   45.7970 H           1 XMP       0.0676
     33 H9         -0.7707   38.4276   47.1359 H           1 XMP       0.2101
     34 H10         2.1492   36.4631   46.7492 H           1 XMP       0.0648
     35 H11         2.7205   36.6541   48.7939 H           1 XMP       0.2100
@<TRIPOS>BOND
     1     1     2  ar
     2     1     3  ar
     3     1     4   1
     4     1     5  ar
     5     4     6   1
     6     6     7   1
     7     7     8   1
     8     7    23   1
     9     8     9   1
    10     9    10   1
    11     9    21   1
    12    10    11   1
    13    10    20   1
    14    11    12  am
    15    11    18   2
    16    12    14  am
    17    14    13  am
    18    13    16  am
    19    14    15   2
    20    16    17   2
    21    16    18   1
    22    18    19   1
    23    19    20   2
    24    21    22   1
    25    21    23   1
    26    23    24   1
    27     6    25   1
    28     6    26   1
    29     7    27   1
    30     9    28   1
    31    12    29   1
    32    13    30   1
    33    20    31   1
    34    21    32   1
    35    22    33   1
    36    23    34   1
    37    24    35   1
@<TRIPOS>SUBSTRUCTURE
     1  XMP      6

