@<TRIPOS>MOLECULE
1lol_ligand_048
    35    37
SMALL
GAST_HUCK
****
This file was generated by PARSER (from files_GN.cpp)

@<TRIPOS>ATOM
      1 P           1.4237   44.6270   48.8035 P.3         1 XMP       0.2008
      2 O1P         0.0306   44.4011   48.5195 O.co2       1 XMP      -0.5537
      3 O2P         1.5029   45.9403   49.3991 O.co2       1 XMP      -0.5537
      4 O5'         2.2181   44.5963   47.4614 O.3         1 XMP      -0.2734
      5 O3P         1.8728   43.6391   49.7554 O.co2       1 XMP      -0.5537
      6 C5'         3.6346   44.8697   47.5629 C.3         1 XMP       0.1072
      7 C4'         4.2873   44.9641   46.1604 C.3         1 XMP       0.1182
      8 O4'         4.2890   43.7071   45.4708 O.3         1 XMP      -0.3363
      9 C1'         4.6533   43.9978   44.1060 C.3         1 XMP       0.2010
     10 N9          4.1478   43.0420   43.1603 N.pl3       1 XMP      -0.1896
     11 C4          4.3197   43.0991   41.8245 C.2         1 XMP       0.2049
     12 N3          4.9433   44.0064   41.0102 N.am        1 XMP      -0.1835
     13 N1          4.3372   42.7551   39.1505 N.am        1 XMP      -0.1870
     14 C2          4.9407   43.8198   39.6886 C.2         1 XMP       0.3214
     15 O2          5.4863   44.6354   38.9623 O.2         1 XMP      -0.3846
     16 C6          3.7216   41.8292   39.8941 C.2         1 XMP       0.1997
     17 O6          3.1771   40.8730   39.3619 O.2         1 XMP      -0.4080
     18 C5          3.6905   41.9874   41.2712 C.2         1 XMP       0.1084
     19 N7          3.1505   41.2668   42.2647 N.2         1 XMP      -0.3331
     20 C8          3.4345   41.9216   43.4063 C.2         1 XMP       0.0923
     21 C2'         4.1607   45.4451   43.8246 C.3         1 XMP       0.1387
     22 O2'         5.2435   46.2754   43.3960 O.3         1 XMP      -0.3836
     23 C3'         3.5659   45.8949   45.1723 C.3         1 XMP       0.1149
     24 O3'         3.7462   47.2795   45.4593 O.3         1 XMP      -0.3864
     25 H1          4.1264   44.0573   48.1131 H           1 XMP       0.0639
     26 H2          3.8415   45.8174   48.0812 H           1 XMP       0.0639
     27 H3          5.3221   45.2994   46.2995 H           1 XMP       0.0650
     28 H4          5.7471   43.9575   44.0640 H           1 XMP       0.0998
     29 H5          5.3762   44.7853   41.3927 H           1 XMP       0.2360
     30 H6          4.3512   42.6466   38.1860 H           1 XMP       0.2254
     31 H7          3.1373   41.5982   44.3303 H           1 XMP       0.1125
     32 H8          3.3859   45.4751   43.0522 H           1 XMP       0.0676
     33 H9          5.9249   46.2167   44.1025 H           1 XMP       0.2101
     34 H10         2.4941   45.6775   45.1802 H           1 XMP       0.0648
     35 H11         3.1232   47.7618   44.8697 H           1 XMP       0.2100
@<TRIPOS>BOND
     1     1     2  ar
     2     1     3  ar
     3     1     4   1
     4     1     5  ar
     5     4     6   1
     6     6     7   1
     7     7     8   1
     8     7    23   1
     9     8     9   1
    10     9    10   1
    11     9    21   1
    12    10    11   1
    13    10    20   1
    14    11    12  am
    15    11    18   2
    16    12    14  am
    17    14    13  am
    18    13    16  am
    19    14    15   2
    20    16    17   2
    21    16    18   1
    22    18    19   1
    23    19    20   2
    24    21    22   1
    25    21    23   1
    26    23    24   1
    27     6    25   1
    28     6    26   1
    29     7    27   1
    30     9    28   1
    31    12    29   1
    32    13    30   1
    33    20    31   1
    34    21    32   1
    35    22    33   1
    36    23    34   1
    37    24    35   1
@<TRIPOS>SUBSTRUCTURE
     1  XMP      6

