@<TRIPOS>MOLECULE
1loq_ligand_004
    32    33
SMALL
GAST_HUCK
****
This file was generated by PARSER (from files_GN.cpp)

@<TRIPOS>ATOM
      1 O3P        41.1064   32.3531   34.6081 O.co2       1 MOL      -0.5537
      2 P          39.7509   32.5600   35.0475 P.3         1 MOL       0.2008
      3 O1P        39.0589   33.5035   34.2047 O.co2       1 MOL      -0.5537
      4 O2P        39.0815   31.2860   34.8898 O.co2       1 MOL      -0.5537
      5 O5'        39.6104   32.9399   36.5426 O.3         1 MOL      -0.2734
      6 C5'        40.5677   33.8147   37.1866 C.3         1 MOL       0.1072
      7 C4'        40.1445   35.2967   37.4415 C.3         1 MOL       0.1182
      8 O4'        40.7516   36.1872   36.4943 O.3         1 MOL      -0.3363
      9 C3'        38.6335   35.6484   37.4168 C.3         1 MOL       0.1149
     10 O3'        38.0915   35.5749   38.7292 O.3         1 MOL      -0.3864
     11 C2'        38.5885   37.0700   36.8002 C.3         1 MOL       0.1387
     12 O2'        37.8847   38.0652   37.5568 O.3         1 MOL      -0.3836
     13 C1'        40.0782   37.4467   36.6559 C.3         1 MOL       0.2059
     14 N1         40.3248   38.3848   35.5741 N.am        1 MOL      -0.1592
     15 C2         40.4641   37.9914   34.2868 C.2         1 MOL       0.3328
     16 O2         40.3887   36.8300   33.9239 O.2         1 MOL      -0.3815
     17 N3         40.6958   38.8986   33.3377 N.am        1 MOL      -0.1865
     18 C4         40.7694   40.1994   33.6147 C.2         1 MOL       0.1822
     19 O4         40.9742   40.9893   32.7059 O.2         1 MOL      -0.4124
     20 C5         40.6032   40.6358   34.8900 C.2         1 MOL       0.0062
     21 C6         40.3804   39.7208   35.8523 C.2         1 MOL       0.0591
     22 H1         41.5519   33.7903   36.7002 H           1 MOL       0.0639
     23 H2         40.7040   33.3424   38.1659 H           1 MOL       0.0639
     24 H3         40.5452   35.5617   38.4304 H           1 MOL       0.0650
     25 H4         38.0706   34.9673   36.7772 H           1 MOL       0.0648
     26 H5         38.3161   34.6736   39.0469 H           1 MOL       0.2100
     27 H6         38.1313   37.0194   35.8054 H           1 MOL       0.0676
     28 H7         36.9785   38.0987   37.1872 H           1 MOL       0.2101
     29 H8         40.4279   37.8717   37.6099 H           1 MOL       0.0997
     30 H9         40.8093   38.6065   32.4191 H           1 MOL       0.2259
     31 H10        40.6417   41.6055   35.1154 H           1 MOL       0.0258
     32 H11        40.2452   40.0535   36.7831 H           1 MOL       0.1178
@<TRIPOS>BOND
     1     2     1  ar
     2     2     3  ar
     3     2     4  ar
     4     2     5   1
     5     5     6   1
     6     6     7   1
     7     7     8   1
     8     7     9   1
     9     8    13   1
    10     9    10   1
    11     9    11   1
    12    11    12   1
    13    11    13   1
    14    13    14   1
    15    14    15  am
    16    14    21   1
    17    15    16   2
    18    15    17  am
    19    17    18  am
    20    18    19   2
    21    18    20   1
    22    20    21   2
    23     6    22   1
    24     6    23   1
    25     7    24   1
    26     9    25   1
    27    10    26   1
    28    11    27   1
    29    12    28   1
    30    13    29   1
    31    17    30   1
    32    20    31   1
    33    21    32   1
@<TRIPOS>SUBSTRUCTURE
     1  MOL      6

