@<TRIPOS>MOLECULE
1loq_ligand_034
    32    33
SMALL
GAST_HUCK
****
This file was generated by PARSER (from files_GN.cpp)

@<TRIPOS>ATOM
      1 O3P        40.3083   37.2292   38.5065 O.co2       1 MOL      -0.5537
      2 P          40.4599   38.4549   37.7531 P.3         1 MOL       0.2008
      3 O1P        39.1794   39.1195   37.6859 O.co2       1 MOL      -0.5537
      4 O2P        41.3361   39.2898   38.5405 O.co2       1 MOL      -0.5537
      5 O5'        41.2047   38.1512   36.4175 O.3         1 MOL      -0.2734
      6 C5'        40.5222   38.2475   35.1530 C.3         1 MOL       0.1072
      7 C4'        39.7261   36.9840   34.7252 C.3         1 MOL       0.1182
      8 O4'        40.3712   35.7797   35.1280 O.3         1 MOL      -0.3363
      9 C3'        38.3002   36.8751   35.2953 C.3         1 MOL       0.1149
     10 O3'        37.3902   37.6632   34.5195 O.3         1 MOL      -0.3864
     11 C2'        38.0198   35.3553   35.2589 C.3         1 MOL       0.1387
     12 O2'        37.0608   34.9751   34.2590 O.3         1 MOL      -0.3836
     13 C1'        39.4158   34.7108   35.0225 C.3         1 MOL       0.2059
     14 N1         39.6795   33.5807   35.9078 N.am        1 MOL      -0.1592
     15 C2         40.3003   33.7205   37.1026 C.2         1 MOL       0.3328
     16 O2         40.7695   34.7641   37.5300 O.2         1 MOL      -0.3815
     17 N3         40.4020   32.6744   37.9243 N.am        1 MOL      -0.1865
     18 C4         39.9414   31.4741   37.5882 C.2         1 MOL       0.1822
     19 O4         40.0627   30.5557   38.3864 O.2         1 MOL      -0.4124
     20 C5         39.3610   31.2792   36.3747 C.2         1 MOL       0.0062
     21 C6         39.2268   32.3393   35.5501 C.2         1 MOL       0.0591
     22 H1         41.3122   38.3912   34.4213 H           1 MOL       0.0639
     23 H2         39.8861   39.1442   35.0913 H           1 MOL       0.0639
     24 H3         39.6688   36.9857   33.6245 H           1 MOL       0.0650
     25 H4         38.2642   37.2011   36.3279 H           1 MOL       0.0648
     26 H5         36.5442   37.6494   35.0189 H           1 MOL       0.2100
     27 H6         37.6108   35.0404   36.2225 H           1 MOL       0.0676
     28 H7         37.1343   35.6431   33.5356 H           1 MOL       0.2101
     29 H8         39.4862   34.3673   33.9866 H           1 MOL       0.0997
     30 H9         40.7853   32.7963   38.8069 H           1 MOL       0.2259
     31 H10        39.0397   30.3807   36.1060 H           1 MOL       0.0258
     32 H11        38.7886   32.1934   34.6733 H           1 MOL       0.1178
@<TRIPOS>BOND
     1     2     1  ar
     2     2     3  ar
     3     2     4  ar
     4     2     5   1
     5     5     6   1
     6     6     7   1
     7     7     8   1
     8     7     9   1
     9     8    13   1
    10     9    10   1
    11     9    11   1
    12    11    12   1
    13    11    13   1
    14    13    14   1
    15    14    15  am
    16    14    21   1
    17    15    16   2
    18    15    17  am
    19    17    18  am
    20    18    19   2
    21    18    20   1
    22    20    21   2
    23     6    22   1
    24     6    23   1
    25     7    24   1
    26     9    25   1
    27    10    26   1
    28    11    27   1
    29    12    28   1
    30    13    29   1
    31    17    30   1
    32    20    31   1
    33    21    32   1
@<TRIPOS>SUBSTRUCTURE
     1  MOL      6

