@<TRIPOS>MOLECULE
1loq_ligand_036
    32    33
SMALL
GAST_HUCK
****
This file was generated by PARSER (from files_GN.cpp)

@<TRIPOS>ATOM
      1 O3P        38.9770   30.8065   34.1562 O.co2       1 MOL      -0.5537
      2 P          39.3165   32.0546   34.7876 P.3         1 MOL       0.2008
      3 O1P        38.7589   33.1234   33.9954 O.co2       1 MOL      -0.5537
      4 O2P        38.6175   31.9917   36.0456 O.co2       1 MOL      -0.5537
      5 O5'        40.8798   32.1003   34.9304 O.3         1 MOL      -0.2734
      6 C5'        41.5562   33.3670   35.1216 C.3         1 MOL       0.1072
      7 C4'        41.3164   34.0678   36.4899 C.3         1 MOL       0.1182
      8 O4'        41.7154   35.4386   36.4143 O.3         1 MOL      -0.3363
      9 C3'        39.8605   34.0715   36.9747 C.3         1 MOL       0.1149
     10 O3'        39.5728   32.9238   37.7641 O.3         1 MOL      -0.3864
     11 C2'        39.6641   35.3956   37.7127 C.3         1 MOL       0.1387
     12 O2'        39.7100   35.2264   39.1243 O.3         1 MOL      -0.3836
     13 C1'        40.8194   36.2717   37.1744 C.3         1 MOL       0.2059
     14 N1         40.3340   37.4227   36.4174 N.am        1 MOL      -0.1592
     15 C2         40.0673   37.3958   35.0912 C.2         1 MOL       0.3328
     16 O2         40.1995   36.4127   34.3734 O.2         1 MOL      -0.3815
     17 N3         39.6141   38.4884   34.4777 N.am        1 MOL      -0.1865
     18 C4         39.3892   39.6199   35.1408 C.2         1 MOL       0.1822
     19 O4         38.9717   40.5883   34.5253 O.2         1 MOL      -0.4124
     20 C5         39.6122   39.6830   36.4815 C.2         1 MOL       0.0062
     21 C6         40.0780   38.5819   37.1029 C.2         1 MOL       0.0591
     22 H1         41.3465   34.0407   34.2900 H           1 MOL       0.0639
     23 H2         42.6295   33.1721   35.0593 H           1 MOL       0.0639
     24 H3         41.9542   33.5788   37.2292 H           1 MOL       0.0650
     25 H4         39.1890   34.0864   36.1253 H           1 MOL       0.0648
     26 H5         40.1780   32.9625   38.5378 H           1 MOL       0.2100
     27 H6         38.6825   35.8176   37.4794 H           1 MOL       0.0676
     28 H7         38.8860   34.7311   39.3216 H           1 MOL       0.2101
     29 H8         41.4251   36.6290   38.0144 H           1 MOL       0.0997
     30 H9         39.4437   38.4592   33.5230 H           1 MOL       0.2259
     31 H10        39.4404   40.5187   36.9946 H           1 MOL       0.0258
     32 H11        40.2341   38.6313   38.0860 H           1 MOL       0.1178
@<TRIPOS>BOND
     1     2     1  ar
     2     2     3  ar
     3     2     4  ar
     4     2     5   1
     5     5     6   1
     6     6     7   1
     7     7     8   1
     8     7     9   1
     9     8    13   1
    10     9    10   1
    11     9    11   1
    12    11    12   1
    13    11    13   1
    14    13    14   1
    15    14    15  am
    16    14    21   1
    17    15    16   2
    18    15    17  am
    19    17    18  am
    20    18    19   2
    21    18    20   1
    22    20    21   2
    23     6    22   1
    24     6    23   1
    25     7    24   1
    26     9    25   1
    27    10    26   1
    28    11    27   1
    29    12    28   1
    30    13    29   1
    31    17    30   1
    32    20    31   1
    33    21    32   1
@<TRIPOS>SUBSTRUCTURE
     1  MOL      6

