@<TRIPOS>MOLECULE
1loq_ligand_039
    32    33
SMALL
GAST_HUCK
****
This file was generated by PARSER (from files_GN.cpp)

@<TRIPOS>ATOM
      1 O3P        35.6416   41.3874   32.3400 O.co2       1 MOL      -0.5537
      2 P          36.7243   41.1068   33.2612 P.3         1 MOL       0.2008
      3 O1P        37.9955   41.2117   32.5943 O.co2       1 MOL      -0.5537
      4 O2P        36.6912   42.1503   34.2590 O.co2       1 MOL      -0.5537
      5 O5'        36.4761   39.7743   34.0350 O.3         1 MOL      -0.2734
      6 C5'        36.7732   38.5107   33.4056 C.3         1 MOL       0.1072
      7 C4'        38.0998   37.8803   33.9098 C.3         1 MOL       0.1182
      8 O4'        39.2467   38.6126   33.4476 O.3         1 MOL      -0.3363
      9 C3'        38.2805   37.8441   35.4449 C.3         1 MOL       0.1149
     10 O3'        37.5629   36.7713   36.0471 O.3         1 MOL      -0.3864
     11 C2'        39.8066   37.7474   35.6221 C.3         1 MOL       0.1387
     12 O2'        40.2167   36.4270   35.9743 O.3         1 MOL      -0.3836
     13 C1'        40.3722   38.1883   34.2420 C.3         1 MOL       0.2059
     14 N1         41.3697   39.2520   34.2687 N.am        1 MOL      -0.1592
     15 C2         41.1352   40.4370   34.8757 C.2         1 MOL       0.3328
     16 O2         40.1088   40.6900   35.4902 O.2         1 MOL      -0.3815
     17 N3         42.0405   41.4133   34.8110 N.am        1 MOL      -0.1865
     18 C4         43.1903   41.2581   34.1584 C.2         1 MOL       0.1822
     19 O4         43.9695   42.1978   34.1113 O.2         1 MOL      -0.4124
     20 C5         43.4720   40.0819   33.5468 C.2         1 MOL       0.0062
     21 C6         42.5554   39.0941   33.6033 C.2         1 MOL       0.0591
     22 H1         36.7880   38.5622   32.3124 H           1 MOL       0.0639
     23 H2         35.9649   37.8357   33.6772 H           1 MOL       0.0639
     24 H3         38.1583   36.8624   33.5064 H           1 MOL       0.0650
     25 H4         37.9322   38.7819   35.8902 H           1 MOL       0.0648
     26 H5         36.6675   37.1366   36.2034 H           1 MOL       0.2100
     27 H6         40.1266   38.4109   36.4289 H           1 MOL       0.0676
     28 H7         40.9605   36.5527   36.6033 H           1 MOL       0.2101
     29 H8         40.7622   37.2932   33.7380 H           1 MOL       0.0997
     30 H9         41.8518   42.2658   35.2367 H           1 MOL       0.2259
     31 H10        44.3221   39.9517   33.0427 H           1 MOL       0.0258
     32 H11        42.7600   38.2472   33.1223 H           1 MOL       0.1178
@<TRIPOS>BOND
     1     2     1  ar
     2     2     3  ar
     3     2     4  ar
     4     2     5   1
     5     5     6   1
     6     6     7   1
     7     7     8   1
     8     7     9   1
     9     8    13   1
    10     9    10   1
    11     9    11   1
    12    11    12   1
    13    11    13   1
    14    13    14   1
    15    14    15  am
    16    14    21   1
    17    15    16   2
    18    15    17  am
    19    17    18  am
    20    18    19   2
    21    18    20   1
    22    20    21   2
    23     6    22   1
    24     6    23   1
    25     7    24   1
    26     9    25   1
    27    10    26   1
    28    11    27   1
    29    12    28   1
    30    13    29   1
    31    17    30   1
    32    20    31   1
    33    21    32   1
@<TRIPOS>SUBSTRUCTURE
     1  MOL      6

