@<TRIPOS>MOLECULE
1loq_ligand_052
    32    33
SMALL
GAST_HUCK
****
This file was generated by PARSER (from files_GN.cpp)

@<TRIPOS>ATOM
      1 O3P        42.3269   34.7548   29.6392 O.co2       1 MOL      -0.5537
      2 P          42.5699   33.5638   30.4165 P.3         1 MOL       0.2008
      3 O1P        41.7412   32.5143   29.8735 O.co2       1 MOL      -0.5537
      4 O2P        43.9575   33.2265   30.2318 O.co2       1 MOL      -0.5537
      5 O5'        42.3196   33.9360   31.9148 O.3         1 MOL      -0.2734
      6 C5'        41.3503   33.1463   32.6343 C.3         1 MOL       0.1072
      7 C4'        41.3879   33.4748   34.1386 C.3         1 MOL       0.1182
      8 O4'        40.8915   34.7913   34.4201 O.3         1 MOL      -0.3363
      9 C3'        40.5339   32.5083   34.9908 C.3         1 MOL       0.1149
     10 O3'        41.4016   31.6487   35.7056 O.3         1 MOL      -0.3864
     11 C2'        39.7114   33.4546   35.8929 C.3         1 MOL       0.1387
     12 O2'        39.5538   32.9592   37.2265 O.3         1 MOL      -0.3836
     13 C1'        40.4571   34.8057   35.7886 C.3         1 MOL       0.2059
     14 N1         39.6509   35.9680   36.1386 N.am        1 MOL      -0.1592
     15 C2         39.2540   36.9000   35.2413 C.2         1 MOL       0.3328
     16 O2         39.4577   36.8579   34.0343 O.2         1 MOL      -0.3815
     17 N3         38.5728   37.9648   35.6419 N.am        1 MOL      -0.1865
     18 C4         38.2564   38.1596   36.9143 C.2         1 MOL       0.1822
     19 O4         37.6257   39.1630   37.2082 O.2         1 MOL      -0.4124
     20 C5         38.6055   37.2350   37.8526 C.2         1 MOL       0.0062
     21 C6         39.3031   36.1532   37.4511 C.2         1 MOL       0.0591
     22 H1         41.5802   32.0919   32.5539 H           1 MOL       0.0639
     23 H2         40.3465   33.3163   32.2468 H           1 MOL       0.0639
     24 H3         42.4349   33.4574   34.4609 H           1 MOL       0.0650
     25 H4         39.8476   31.8964   34.3907 H           1 MOL       0.0648
     26 H5         42.0409   32.2463   36.1430 H           1 MOL       0.2100
     27 H6         38.7093   33.5926   35.4663 H           1 MOL       0.0676
     28 H7         40.2882   32.3182   37.3802 H           1 MOL       0.2101
     29 H8         41.3441   34.7882   36.4328 H           1 MOL       0.0997
     30 H9         38.2922   38.6200   34.9784 H           1 MOL       0.2259
     31 H10        38.3686   37.3629   38.8095 H           1 MOL       0.0258
     32 H11        39.5764   35.4903   38.1484 H           1 MOL       0.1178
@<TRIPOS>BOND
     1     2     1  ar
     2     2     3  ar
     3     2     4  ar
     4     2     5   1
     5     5     6   1
     6     6     7   1
     7     7     8   1
     8     7     9   1
     9     8    13   1
    10     9    10   1
    11     9    11   1
    12    11    12   1
    13    11    13   1
    14    13    14   1
    15    14    15  am
    16    14    21   1
    17    15    16   2
    18    15    17  am
    19    17    18  am
    20    18    19   2
    21    18    20   1
    22    20    21   2
    23     6    22   1
    24     6    23   1
    25     7    24   1
    26     9    25   1
    27    10    26   1
    28    11    27   1
    29    12    28   1
    30    13    29   1
    31    17    30   1
    32    20    31   1
    33    21    32   1
@<TRIPOS>SUBSTRUCTURE
     1  MOL      6

