@<TRIPOS>MOLECULE
1loq_ligand_016
    32    33
SMALL
GAST_HUCK
****
This file was generated by PARSER (from files_GN.cpp)

@<TRIPOS>ATOM
      1 O3P        39.2086   32.4345   34.2238 O.co2       1 MOL      -0.5537
      2 P          40.1207   33.1708   35.0637 P.3         1 MOL       0.2008
      3 O1P        39.6673   33.0386   36.4223 O.co2       1 MOL      -0.5537
      4 O2P        41.4194   32.5650   34.9186 O.co2       1 MOL      -0.5537
      5 O5'        40.1998   34.6512   34.5697 O.3         1 MOL      -0.2734
      6 C5'        39.0687   35.5099   34.8284 C.3         1 MOL       0.1072
      7 C4'        39.3993   36.5226   35.9574 C.3         1 MOL       0.1182
      8 O4'        40.2067   37.5971   35.4376 O.3         1 MOL      -0.3363
      9 C3'        38.1327   37.1528   36.6031 C.3         1 MOL       0.1149
     10 O3'        38.1618   36.9949   38.0282 O.3         1 MOL      -0.3864
     11 C2'        38.2200   38.6253   36.1796 C.3         1 MOL       0.1387
     12 O2'        37.6439   39.4928   37.1536 O.3         1 MOL      -0.3836
     13 C1'        39.7331   38.8338   35.9996 C.3         1 MOL       0.2059
     14 N1         40.0194   40.0095   35.1947 N.am        1 MOL      -0.1592
     15 C2         40.0351   39.9769   33.8422 C.2         1 MOL       0.3328
     16 O2         39.8580   38.9614   33.1860 O.2         1 MOL      -0.3815
     17 N3         40.2220   41.0988   33.1432 N.am        1 MOL      -0.1865
     18 C4         40.3925   42.2746   33.7459 C.2         1 MOL       0.1822
     19 O4         40.5804   43.2683   33.0604 O.2         1 MOL      -0.4124
     20 C5         40.3375   42.3572   35.1051 C.2         1 MOL       0.0062
     21 C6         40.1574   41.2276   35.8100 C.2         1 MOL       0.0591
     22 H1         38.1504   34.9544   35.0580 H           1 MOL       0.0639
     23 H2         38.8737   36.0723   33.9094 H           1 MOL       0.0639
     24 H3         39.9877   36.0048   36.7209 H           1 MOL       0.0650
     25 H4         37.2004   36.7191   36.2314 H           1 MOL       0.0648
     26 H5         38.9841   37.4405   38.3180 H           1 MOL       0.2100
     27 H6         37.7081   38.7642   35.2224 H           1 MOL       0.0676
     28 H7         36.6858   39.4620   36.9594 H           1 MOL       0.2101
     29 H8         40.2122   38.9132   36.9843 H           1 MOL       0.0997
     30 H9         40.2260   41.0592   32.1742 H           1 MOL       0.2259
     31 H10        40.3885   43.2416   35.5634 H           1 MOL       0.0258
     32 H11        40.0889   41.3030   36.8011 H           1 MOL       0.1178
@<TRIPOS>BOND
     1     2     1  ar
     2     2     3  ar
     3     2     4  ar
     4     2     5   1
     5     5     6   1
     6     6     7   1
     7     7     8   1
     8     7     9   1
     9     8    13   1
    10     9    10   1
    11     9    11   1
    12    11    12   1
    13    11    13   1
    14    13    14   1
    15    14    15  am
    16    14    21   1
    17    15    16   2
    18    15    17  am
    19    17    18  am
    20    18    19   2
    21    18    20   1
    22    20    21   2
    23     6    22   1
    24     6    23   1
    25     7    24   1
    26     9    25   1
    27    10    26   1
    28    11    27   1
    29    12    28   1
    30    13    29   1
    31    17    30   1
    32    20    31   1
    33    21    32   1
@<TRIPOS>SUBSTRUCTURE
     1  MOL      6

