@<TRIPOS>MOLECULE
1loq_ligand_030
    32    33
SMALL
GAST_HUCK
****
This file was generated by PARSER (from files_GN.cpp)

@<TRIPOS>ATOM
      1 O3P        41.0418   40.1184   33.4910 O.co2       1 MOL      -0.5537
      2 P          39.6344   40.0375   33.7960 P.3         1 MOL       0.2008
      3 O1P        39.4249   40.1451   35.2164 O.co2       1 MOL      -0.5537
      4 O2P        39.0161   41.2032   33.2216 O.co2       1 MOL      -0.5537
      5 O5'        38.9316   38.8008   33.1502 O.3         1 MOL      -0.2734
      6 C5'        39.4669   37.4743   33.3627 C.3         1 MOL       0.1072
      7 C4'        39.3697   36.8930   34.8030 C.3         1 MOL       0.1182
      8 O4'        40.3707   37.4761   35.6395 O.3         1 MOL      -0.3363
      9 C3'        38.0485   37.1647   35.5406 C.3         1 MOL       0.1149
     10 O3'        37.0113   36.2503   35.1852 O.3         1 MOL      -0.3864
     11 C2'        38.4706   37.1154   37.0222 C.3         1 MOL       0.1387
     12 O2'        38.0827   35.8764   37.6257 O.3         1 MOL      -0.3836
     13 C1'        40.0270   37.2649   37.0207 C.3         1 MOL       0.2059
     14 N1         40.6116   38.2751   37.9044 N.am        1 MOL      -0.1592
     15 C2         41.7544   38.9384   37.5982 C.2         1 MOL       0.3328
     16 O2         42.4286   38.7325   36.5980 O.2         1 MOL      -0.3815
     17 N3         42.2309   39.8730   38.4154 N.am        1 MOL      -0.1865
     18 C4         41.6353   40.1686   39.5651 C.2         1 MOL       0.1822
     19 O4         42.1239   41.0286   40.2839 O.2         1 MOL      -0.4124
     20 C5         40.5341   39.4736   39.9568 C.2         1 MOL       0.0062
     21 C6         40.0591   38.5134   39.1383 C.2         1 MOL       0.0591
     22 H1         40.5042   37.4227   33.0199 H           1 MOL       0.0639
     23 H2         38.8871   36.8190   32.7103 H           1 MOL       0.0639
     24 H3         39.5517   35.8101   34.7615 H           1 MOL       0.0650
     25 H4         37.6843   38.1693   35.3152 H           1 MOL       0.0648
     26 H5         36.1919   36.7373   35.4190 H           1 MOL       0.2100
     27 H6         37.9680   37.9335   37.5455 H           1 MOL       0.0676
     28 H7         38.4893   35.8832   38.5172 H           1 MOL       0.2101
     29 H8         40.4733   36.3047   37.2996 H           1 MOL       0.0997
     30 H9         43.0457   40.3425   38.1664 H           1 MOL       0.2259
     31 H10        40.1150   39.6464   40.8424 H           1 MOL       0.0258
     32 H11        39.2963   37.9704   39.4701 H           1 MOL       0.1178
@<TRIPOS>BOND
     1     2     1  ar
     2     2     3  ar
     3     2     4  ar
     4     2     5   1
     5     5     6   1
     6     6     7   1
     7     7     8   1
     8     7     9   1
     9     8    13   1
    10     9    10   1
    11     9    11   1
    12    11    12   1
    13    11    13   1
    14    13    14   1
    15    14    15  am
    16    14    21   1
    17    15    16   2
    18    15    17  am
    19    17    18  am
    20    18    19   2
    21    18    20   1
    22    20    21   2
    23     6    22   1
    24     6    23   1
    25     7    24   1
    26     9    25   1
    27    10    26   1
    28    11    27   1
    29    12    28   1
    30    13    29   1
    31    17    30   1
    32    20    31   1
    33    21    32   1
@<TRIPOS>SUBSTRUCTURE
     1  MOL      6

