@<TRIPOS>MOLECULE
1loq_ligand_011
    32    33
SMALL
GAST_HUCK
****
This file was generated by PARSER (from files_GN.cpp)

@<TRIPOS>ATOM
      1 O3P        39.5331   32.8078   36.2812 O.co2       1 MOL      -0.5537
      2 P          40.8457   33.3812   36.1339 P.3         1 MOL       0.2008
      3 O1P        41.6063   33.1179   37.3221 O.co2       1 MOL      -0.5537
      4 O2P        41.5233   32.7033   35.0530 O.co2       1 MOL      -0.5537
      5 O5'        40.7669   34.9036   35.8020 O.3         1 MOL      -0.2734
      6 C5'        40.5207   35.8318   36.8856 C.3         1 MOL       0.1072
      7 C4'        39.3072   36.7573   36.6051 C.3         1 MOL       0.1182
      8 O4'        39.5066   37.4824   35.3838 O.3         1 MOL      -0.3363
      9 C3'        37.9687   36.0065   36.4725 C.3         1 MOL       0.1149
     10 O3'        36.9332   36.6797   37.1894 O.3         1 MOL      -0.3864
     11 C2'        37.7267   35.9980   34.9533 C.3         1 MOL       0.1387
     12 O2'        36.3322   35.9112   34.6538 O.3         1 MOL      -0.3836
     13 C1'        38.4061   37.3050   34.4661 C.3         1 MOL       0.2059
     14 N1         38.8256   37.3867   33.0621 N.am        1 MOL      -0.1592
     15 C2         38.0017   37.0700   32.0357 C.2         1 MOL       0.3328
     16 O2         36.8629   36.6490   32.1836 O.2         1 MOL      -0.3815
     17 N3         38.4059   37.1955   30.7701 N.am        1 MOL      -0.1865
     18 C4         39.6128   37.6645   30.4659 C.2         1 MOL       0.1822
     19 O4         39.9464   37.7432   29.2937 O.2         1 MOL      -0.4124
     20 C5         40.4526   38.0625   31.4558 C.2         1 MOL       0.0062
     21 C6         40.0520   37.9154   32.7324 C.2         1 MOL       0.0591
     22 H1         41.4136   36.4517   36.9718 H           1 MOL       0.0639
     23 H2         40.3688   35.3586   37.8641 H           1 MOL       0.0639
     24 H3         39.2539   37.4859   37.4177 H           1 MOL       0.0650
     25 H4         38.0214   34.9906   36.8666 H           1 MOL       0.0648
     26 H5         36.7579   37.5155   36.7114 H           1 MOL       0.2100
     27 H6         38.2322   35.1356   34.5119 H           1 MOL       0.0676
     28 H7         35.9168   36.6986   35.0694 H           1 MOL       0.2101
     29 H8         37.7084   38.1320   34.6399 H           1 MOL       0.0997
     30 H9         37.8107   36.9350   30.0482 H           1 MOL       0.2259
     31 H10        41.3296   38.4887   31.2459 H           1 MOL       0.0258
     32 H11        40.6684   38.2496   33.4354 H           1 MOL       0.1178
@<TRIPOS>BOND
     1     2     1  ar
     2     2     3  ar
     3     2     4  ar
     4     2     5   1
     5     5     6   1
     6     6     7   1
     7     7     8   1
     8     7     9   1
     9     8    13   1
    10     9    10   1
    11     9    11   1
    12    11    12   1
    13    11    13   1
    14    13    14   1
    15    14    15  am
    16    14    21   1
    17    15    16   2
    18    15    17  am
    19    17    18  am
    20    18    19   2
    21    18    20   1
    22    20    21   2
    23     6    22   1
    24     6    23   1
    25     7    24   1
    26     9    25   1
    27    10    26   1
    28    11    27   1
    29    12    28   1
    30    13    29   1
    31    17    30   1
    32    20    31   1
    33    21    32   1
@<TRIPOS>SUBSTRUCTURE
     1  MOL      6

