@<TRIPOS>MOLECULE
1loq_ligand_015
    32    33
SMALL
GAST_HUCK
****
This file was generated by PARSER (from files_GN.cpp)

@<TRIPOS>ATOM
      1 O3P        41.4093   33.7816   37.2014 O.co2       1 MOL      -0.5537
      2 P          40.7329   33.3914   35.9909 P.3         1 MOL       0.2008
      3 O1P        41.6553   32.5825   35.2296 O.co2       1 MOL      -0.5537
      4 O2P        39.5818   32.6061   36.3468 O.co2       1 MOL      -0.5537
      5 O5'        40.4002   34.6758   35.1820 O.3         1 MOL      -0.2734
      6 C5'        39.2139   35.3933   35.5770 C.3         1 MOL       0.1072
      7 C4'        39.2208   36.7643   34.8618 C.3         1 MOL       0.1182
      8 O4'        39.3668   36.5903   33.4513 O.3         1 MOL      -0.3363
      9 C3'        37.9232   37.5895   34.9755 C.3         1 MOL       0.1149
     10 O3'        37.7956   38.2448   36.2417 O.3         1 MOL      -0.3864
     11 C2'        38.0254   38.5552   33.7756 C.3         1 MOL       0.1387
     12 O2'        38.4632   39.8592   34.1635 O.3         1 MOL      -0.3836
     13 C1'        39.0637   37.8573   32.8463 C.3         1 MOL       0.2059
     14 N1         38.6765   37.6246   31.4630 N.am        1 MOL      -0.1592
     15 C2         37.5413   36.9726   31.1227 C.2         1 MOL       0.3328
     16 O2         36.7518   36.5253   31.9426 O.2         1 MOL      -0.3815
     17 N3         37.2502   36.7496   29.8385 N.am        1 MOL      -0.1865
     18 C4         38.0776   37.1186   28.8674 C.2         1 MOL       0.1822
     19 O4         37.7729   36.8687   27.7063 O.2         1 MOL      -0.4124
     20 C5         39.2548   37.7339   29.1640 C.2         1 MOL       0.0062
     21 C6         39.5302   37.9881   30.4588 C.2         1 MOL       0.0591
     22 H1         39.1736   35.5760   36.6548 H           1 MOL       0.0639
     23 H2         38.3268   34.8265   35.2801 H           1 MOL       0.0639
     24 H3         40.0678   37.3436   35.2477 H           1 MOL       0.0650
     25 H4         37.0488   36.9382   34.8330 H           1 MOL       0.0648
     26 H5         37.6684   37.5197   36.8891 H           1 MOL       0.2100
     27 H6         37.0508   38.6747   33.2968 H           1 MOL       0.0676
     28 H7         37.7474   40.2241   34.7220 H           1 MOL       0.2101
     29 H8         39.9929   38.4408   32.9014 H           1 MOL       0.0997
     30 H9         36.4236   36.2959   29.6151 H           1 MOL       0.2259
     31 H10        39.9009   37.9696   28.4442 H           1 MOL       0.0258
     32 H11        40.4041   38.4189   30.6543 H           1 MOL       0.1178
@<TRIPOS>BOND
     1     2     1  ar
     2     2     3  ar
     3     2     4  ar
     4     2     5   1
     5     5     6   1
     6     6     7   1
     7     7     8   1
     8     7     9   1
     9     8    13   1
    10     9    10   1
    11     9    11   1
    12    11    12   1
    13    11    13   1
    14    13    14   1
    15    14    15  am
    16    14    21   1
    17    15    16   2
    18    15    17  am
    19    17    18  am
    20    18    19   2
    21    18    20   1
    22    20    21   2
    23     6    22   1
    24     6    23   1
    25     7    24   1
    26     9    25   1
    27    10    26   1
    28    11    27   1
    29    12    28   1
    30    13    29   1
    31    17    30   1
    32    20    31   1
    33    21    32   1
@<TRIPOS>SUBSTRUCTURE
     1  MOL      6

