@<TRIPOS>MOLECULE
1loq_ligand_048
    32    33
SMALL
GAST_HUCK
****
This file was generated by PARSER (from files_GN.cpp)

@<TRIPOS>ATOM
      1 O3P        35.2871   38.8113   33.1104 O.co2       1 MOL      -0.5537
      2 P          36.3521   38.0069   33.6497 P.3         1 MOL       0.2008
      3 O1P        36.7945   37.1283   32.5978 O.co2       1 MOL      -0.5537
      4 O2P        37.4415   38.9101   33.9104 O.co2       1 MOL      -0.5537
      5 O5'        35.9609   37.2812   34.9791 O.3         1 MOL      -0.2734
      6 C5'        36.3668   35.8966   35.1165 C.3         1 MOL       0.1072
      7 C4'        37.8884   35.6920   35.3752 C.3         1 MOL       0.1182
      8 O4'        38.6644   36.3781   34.3905 O.3         1 MOL      -0.3363
      9 C3'        38.3933   36.2576   36.7136 C.3         1 MOL       0.1149
     10 O3'        38.1730   35.3755   37.8089 O.3         1 MOL      -0.3864
     11 C2'        39.8849   36.5203   36.4390 C.3         1 MOL       0.1387
     12 O2'        40.7555   35.5304   36.9669 O.3         1 MOL      -0.3836
     13 C1'        39.9869   36.5946   34.8956 C.3         1 MOL       0.2059
     14 N1         40.5342   37.8234   34.3369 N.am        1 MOL      -0.1592
     15 C2         40.2138   39.0524   34.8099 C.2         1 MOL       0.3328
     16 O2         39.4144   39.3017   35.6987 O.2         1 MOL      -0.3815
     17 N3         40.7689   40.1383   34.2971 N.am        1 MOL      -0.1865
     18 C4         41.6246   40.0688   33.2866 C.2         1 MOL       0.1822
     19 O4         42.0900   41.1077   32.8484 O.2         1 MOL      -0.4124
     20 C5         41.9640   38.8636   32.7577 C.2         1 MOL       0.0062
     21 C6         41.4139   37.7547   33.2879 C.2         1 MOL       0.0591
     22 H1         36.0785   35.3314   34.2197 H           1 MOL       0.0639
     23 H2         35.8032   35.4365   35.9251 H           1 MOL       0.0639
     24 H3         38.1196   34.6274   35.2995 H           1 MOL       0.0650
     25 H4         37.8811   37.2020   36.9335 H           1 MOL       0.0648
     26 H5         38.9854   34.8298   37.8765 H           1 MOL       0.2100
     27 H6         40.1944   37.4259   36.9458 H           1 MOL       0.0676
     28 H7         41.6400   35.9596   36.9462 H           1 MOL       0.2101
     29 H8         40.5138   35.7093   34.5350 H           1 MOL       0.0997
     30 H9         40.5262   40.9994   34.6719 H           1 MOL       0.2259
     31 H10        42.6049   38.8018   32.0016 H           1 MOL       0.0258
     32 H11        41.6756   36.8791   32.8930 H           1 MOL       0.1178
@<TRIPOS>BOND
     1     2     1  ar
     2     2     3  ar
     3     2     4  ar
     4     2     5   1
     5     5     6   1
     6     6     7   1
     7     7     8   1
     8     7     9   1
     9     8    13   1
    10     9    10   1
    11     9    11   1
    12    11    12   1
    13    11    13   1
    14    13    14   1
    15    14    15  am
    16    14    21   1
    17    15    16   2
    18    15    17  am
    19    17    18  am
    20    18    19   2
    21    18    20   1
    22    20    21   2
    23     6    22   1
    24     6    23   1
    25     7    24   1
    26     9    25   1
    27    10    26   1
    28    11    27   1
    29    12    28   1
    30    13    29   1
    31    17    30   1
    32    20    31   1
    33    21    32   1
@<TRIPOS>SUBSTRUCTURE
     1  MOL      6

