@<TRIPOS>MOLECULE
1loq_ligand_051
    32    33
SMALL
GAST_HUCK
****
This file was generated by PARSER (from files_GN.cpp)

@<TRIPOS>ATOM
      1 O3P        37.3226   38.6185   33.2508 O.co2       1 MOL      -0.5537
      2 P          37.9526   37.3248   33.3162 P.3         1 MOL       0.2008
      3 O1P        36.9336   36.3068   33.2329 O.co2       1 MOL      -0.5537
      4 O2P        38.7823   37.2087   32.1436 O.co2       1 MOL      -0.5537
      5 O5'        38.8761   37.2445   34.5646 O.3         1 MOL      -0.2734
      6 C5'        38.3089   36.7821   35.8107 C.3         1 MOL       0.1072
      7 C4'        38.5880   35.2710   36.0453 C.3         1 MOL       0.1182
      8 O4'        38.5491   34.5226   34.8219 O.3         1 MOL      -0.3363
      9 C3'        39.9818   34.9526   36.6125 C.3         1 MOL       0.1149
     10 O3'        40.0889   35.2318   38.0097 O.3         1 MOL      -0.3864
     11 C2'        40.1792   33.4687   36.2415 C.3         1 MOL       0.1387
     12 O2'        39.8076   32.6409   37.3475 O.3         1 MOL      -0.3836
     13 C1'        39.2101   33.2612   35.0379 C.3         1 MOL       0.2059
     14 N1         39.7367   32.8277   33.7460 N.am        1 MOL      -0.1592
     15 C2         40.8944   33.2857   33.2284 C.2         1 MOL       0.3328
     16 O2         41.6263   34.0606   33.8257 O.2         1 MOL      -0.3815
     17 N3         41.2389   32.9937   31.9685 N.am        1 MOL      -0.1865
     18 C4         40.4303   32.3045   31.1690 C.2         1 MOL       0.1822
     19 O4         40.7553   32.1130   30.0095 O.2         1 MOL      -0.4124
     20 C5         39.2372   31.8419   31.6400 C.2         1 MOL       0.0062
     21 C6         38.9306   32.0762   32.9357 C.2         1 MOL       0.0591
     22 H1         37.2325   36.9817   35.8941 H           1 MOL       0.0639
     23 H2         38.7791   37.3533   36.6113 H           1 MOL       0.0639
     24 H3         37.8242   34.8834   36.7238 H           1 MOL       0.0650
     25 H4         40.7377   35.5490   36.0961 H           1 MOL       0.0648
     26 H5         39.3196   34.7920   38.4337 H           1 MOL       0.2100
     27 H6         41.2276   33.2599   36.0049 H           1 MOL       0.0676
     28 H7         40.5771   32.0657   37.5525 H           1 MOL       0.2101
     29 H8         38.4387   32.5653   35.3851 H           1 MOL       0.0997
     30 H9         42.0868   33.3184   31.6181 H           1 MOL       0.2259
     31 H10        38.6085   31.3455   31.0540 H           1 MOL       0.0258
     32 H11        38.0719   31.7144   33.2731 H           1 MOL       0.1178
@<TRIPOS>BOND
     1     2     1  ar
     2     2     3  ar
     3     2     4  ar
     4     2     5   1
     5     5     6   1
     6     6     7   1
     7     7     8   1
     8     7     9   1
     9     8    13   1
    10     9    10   1
    11     9    11   1
    12    11    12   1
    13    11    13   1
    14    13    14   1
    15    14    15  am
    16    14    21   1
    17    15    16   2
    18    15    17  am
    19    17    18  am
    20    18    19   2
    21    18    20   1
    22    20    21   2
    23     6    22   1
    24     6    23   1
    25     7    24   1
    26     9    25   1
    27    10    26   1
    28    11    27   1
    29    12    28   1
    30    13    29   1
    31    17    30   1
    32    20    31   1
    33    21    32   1
@<TRIPOS>SUBSTRUCTURE
     1  MOL      6

