@<TRIPOS>MOLECULE
1loq_ligand_040
    32    33
SMALL
GAST_HUCK
****
This file was generated by PARSER (from files_GN.cpp)

@<TRIPOS>ATOM
      1 O3P        37.0465   38.7783   31.4716 O.co2       1 MOL      -0.5537
      2 P          37.5183   37.4276   31.6516 P.3         1 MOL       0.2008
      3 O1P        37.2155   36.7029   30.4438 O.co2       1 MOL      -0.5537
      4 O2P        38.9526   37.4203   31.7811 O.co2       1 MOL      -0.5537
      5 O5'        36.8064   36.6934   32.8291 O.3         1 MOL      -0.2734
      6 C5'        36.9475   37.2236   34.1645 C.3         1 MOL       0.1072
      7 C4'        38.3664   37.1182   34.7919 C.3         1 MOL       0.1182
      8 O4'        39.1604   38.2484   34.4135 O.3         1 MOL      -0.3363
      9 C3'        38.3817   37.1565   36.3339 C.3         1 MOL       0.1149
     10 O3'        38.0797   35.8862   36.9133 O.3         1 MOL      -0.3864
     11 C2'        39.7920   37.6872   36.6636 C.3         1 MOL       0.1387
     12 O2'        40.6780   36.6438   37.0799 O.3         1 MOL      -0.3836
     13 C1'        40.2613   38.3300   35.3292 C.3         1 MOL       0.2059
     14 N1         40.7113   39.7102   35.4473 N.am        1 MOL      -0.1592
     15 C2         39.8495   40.7186   35.7106 C.2         1 MOL       0.3328
     16 O2         38.6515   40.5531   35.8988 O.2         1 MOL      -0.3815
     17 N3         40.2835   41.9767   35.7576 N.am        1 MOL      -0.1865
     18 C4         41.5623   42.2806   35.5547 C.2         1 MOL       0.1822
     19 O4         41.9033   43.4544   35.5745 O.2         1 MOL      -0.4124
     20 C5         42.4692   41.2938   35.3136 C.2         1 MOL       0.0062
     21 C6         42.0311   40.0209   35.2614 C.2         1 MOL       0.0591
     22 H1         36.2608   36.6372   34.7792 H           1 MOL       0.0639
     23 H2         36.5991   38.2608   34.2036 H           1 MOL       0.0639
     24 H3         38.8435   36.1967   34.4388 H           1 MOL       0.0650
     25 H4         37.6410   37.8766   36.6947 H           1 MOL       0.0648
     26 H5         38.7597   35.2704   36.5669 H           1 MOL       0.2100
     27 H6         39.7348   38.4196   37.4761 H           1 MOL       0.0676
     28 H7         41.4821   37.1045   37.4032 H           1 MOL       0.2101
     29 H8         41.0428   37.6980   34.8946 H           1 MOL       0.0997
     30 H9         39.6490   42.6899   35.9302 H           1 MOL       0.2259
     31 H10        43.4340   41.5054   35.1862 H           1 MOL       0.0258
     32 H11        42.7023   39.3069   35.0901 H           1 MOL       0.1178
@<TRIPOS>BOND
     1     2     1  ar
     2     2     3  ar
     3     2     4  ar
     4     2     5   1
     5     5     6   1
     6     6     7   1
     7     7     8   1
     8     7     9   1
     9     8    13   1
    10     9    10   1
    11     9    11   1
    12    11    12   1
    13    11    13   1
    14    13    14   1
    15    14    15  am
    16    14    21   1
    17    15    16   2
    18    15    17  am
    19    17    18  am
    20    18    19   2
    21    18    20   1
    22    20    21   2
    23     6    22   1
    24     6    23   1
    25     7    24   1
    26     9    25   1
    27    10    26   1
    28    11    27   1
    29    12    28   1
    30    13    29   1
    31    17    30   1
    32    20    31   1
    33    21    32   1
@<TRIPOS>SUBSTRUCTURE
     1  MOL      6

