@<TRIPOS>MOLECULE
1loq_ligand_046
    32    33
SMALL
GAST_HUCK
****
This file was generated by PARSER (from files_GN.cpp)

@<TRIPOS>ATOM
      1 O3P        37.8944   29.6108   31.6785 O.co2       1 MOL      -0.5537
      2 P          38.3000   30.7783   30.9275 P.3         1 MOL       0.2008
      3 O1P        39.3442   30.3112   30.0352 O.co2       1 MOL      -0.5537
      4 O2P        37.2191   31.2365   30.0770 O.co2       1 MOL      -0.5537
      5 O5'        38.9692   31.8912   31.7964 O.3         1 MOL      -0.2734
      6 C5'        38.8084   31.8378   33.2359 C.3         1 MOL       0.1072
      7 C4'        39.8595   32.7433   33.9512 C.3         1 MOL       0.1182
      8 O4'        39.3268   34.0513   34.2497 O.3         1 MOL      -0.3363
      9 C3'        40.4177   32.1880   35.2974 C.3         1 MOL       0.1149
     10 O3'        41.8073   31.8840   35.1339 O.3         1 MOL      -0.3864
     11 C2'        40.1508   33.3202   36.3014 C.3         1 MOL       0.1387
     12 O2'        41.1157   33.4111   37.3458 O.3         1 MOL      -0.3836
     13 C1'        40.0689   34.5472   35.3836 C.3         1 MOL       0.2059
     14 N1         39.5112   35.7005   36.0674 N.am        1 MOL      -0.1592
     15 C2         38.2101   36.0571   35.9791 C.2         1 MOL       0.3328
     16 O2         37.3784   35.4298   35.3355 O.2         1 MOL      -0.3815
     17 N3         37.7713   37.1277   36.6430 N.am        1 MOL      -0.1865
     18 C4         38.5821   37.8522   37.4078 C.2         1 MOL       0.1822
     19 O4         38.1323   38.8243   37.9871 O.2         1 MOL      -0.4124
     20 C5         39.8879   37.5101   37.5505 C.2         1 MOL       0.0062
     21 C6         40.3378   36.4366   36.8764 C.2         1 MOL       0.0591
     22 H1         38.9058   30.8059   33.5767 H           1 MOL       0.0639
     23 H2         37.8068   32.1842   33.5002 H           1 MOL       0.0639
     24 H3         40.6962   32.9195   33.2691 H           1 MOL       0.0650
     25 H4         39.9029   31.2864   35.6462 H           1 MOL       0.0648
     26 H5         42.2812   32.2557   35.9179 H           1 MOL       0.2100
     27 H6         39.1710   33.1602   36.7656 H           1 MOL       0.0676
     28 H7         41.2084   32.4877   37.6518 H           1 MOL       0.2101
     29 H8         41.0637   34.8012   35.0156 H           1 MOL       0.0997
     30 H9         36.8417   37.3815   36.5624 H           1 MOL       0.2259
     31 H10        40.4981   38.0273   38.1397 H           1 MOL       0.0258
     32 H11        41.2966   36.1861   36.9843 H           1 MOL       0.1178
@<TRIPOS>BOND
     1     2     1  ar
     2     2     3  ar
     3     2     4  ar
     4     2     5   1
     5     5     6   1
     6     6     7   1
     7     7     8   1
     8     7     9   1
     9     8    13   1
    10     9    10   1
    11     9    11   1
    12    11    12   1
    13    11    13   1
    14    13    14   1
    15    14    15  am
    16    14    21   1
    17    15    16   2
    18    15    17  am
    19    17    18  am
    20    18    19   2
    21    18    20   1
    22    20    21   2
    23     6    22   1
    24     6    23   1
    25     7    24   1
    26     9    25   1
    27    10    26   1
    28    11    27   1
    29    12    28   1
    30    13    29   1
    31    17    30   1
    32    20    31   1
    33    21    32   1
@<TRIPOS>SUBSTRUCTURE
     1  MOL      6

