@<TRIPOS>MOLECULE
1loq_ligand_012
    32    33
SMALL
GAST_HUCK
****
This file was generated by PARSER (from files_GN.cpp)

@<TRIPOS>ATOM
      1 O3P        41.4538   33.9591   36.9978 O.co2       1 MOL      -0.5537
      2 P          40.6937   33.4519   35.8773 P.3         1 MOL       0.2008
      3 O1P        41.6003   32.6788   35.0715 O.co2       1 MOL      -0.5537
      4 O2P        39.6321   32.6263   36.3950 O.co2       1 MOL      -0.5537
      5 O5'        40.1850   34.6929   35.0754 O.3         1 MOL      -0.2734
      6 C5'        38.8341   35.1164   35.3760 C.3         1 MOL       0.1072
      7 C4'        38.6855   36.6570   35.2673 C.3         1 MOL       0.1182
      8 O4'        39.9527   37.2962   35.4408 O.3         1 MOL      -0.3363
      9 C3'        38.1815   37.1852   33.9083 C.3         1 MOL       0.1149
     10 O3'        36.7698   37.0181   33.7565 O.3         1 MOL      -0.3864
     11 C2'        38.6589   38.6529   33.9177 C.3         1 MOL       0.1387
     12 O2'        37.6266   39.5667   34.3181 O.3         1 MOL      -0.3836
     13 C1'        39.8298   38.6453   34.9438 C.3         1 MOL       0.2059
     14 N1         41.1235   39.0821   34.4245 N.am        1 MOL      -0.1592
     15 C2         41.7556   38.4263   33.4269 C.2         1 MOL       0.3328
     16 O2         41.3010   37.4359   32.8678 O.2         1 MOL      -0.3815
     17 N3         42.9530   38.8277   33.0060 N.am        1 MOL      -0.1865
     18 C4         43.5631   39.8848   33.5483 C.2         1 MOL       0.1822
     19 O4         44.6604   40.2073   33.1309 O.2         1 MOL      -0.4124
     20 C5         42.9666   40.5713   34.5599 C.2         1 MOL       0.0062
     21 C6         41.7553   40.1619   34.9880 C.2         1 MOL       0.0591
     22 H1         38.5097   34.8331   36.3920 H           1 MOL       0.0639
     23 H2         38.1489   34.6381   34.6651 H           1 MOL       0.0639
     24 H3         38.0030   36.9934   36.0596 H           1 MOL       0.0650
     25 H4         38.6789   36.6455   33.0957 H           1 MOL       0.0648
     26 H5         36.3582   37.5232   34.4960 H           1 MOL       0.2100
     27 H6         38.9853   38.9541   32.9202 H           1 MOL       0.0676
     28 H7         38.0376   40.4627   34.2997 H           1 MOL       0.2101
     29 H8         39.5273   39.2498   35.8087 H           1 MOL       0.0997
     30 H9         43.3931   38.3406   32.2932 H           1 MOL       0.2259
     31 H10        43.4156   41.3551   34.9754 H           1 MOL       0.0258
     32 H11        41.3359   40.6568   35.7463 H           1 MOL       0.1178
@<TRIPOS>BOND
     1     2     1  ar
     2     2     3  ar
     3     2     4  ar
     4     2     5   1
     5     5     6   1
     6     6     7   1
     7     7     8   1
     8     7     9   1
     9     8    13   1
    10     9    10   1
    11     9    11   1
    12    11    12   1
    13    11    13   1
    14    13    14   1
    15    14    15  am
    16    14    21   1
    17    15    16   2
    18    15    17  am
    19    17    18  am
    20    18    19   2
    21    18    20   1
    22    20    21   2
    23     6    22   1
    24     6    23   1
    25     7    24   1
    26     9    25   1
    27    10    26   1
    28    11    27   1
    29    12    28   1
    30    13    29   1
    31    17    30   1
    32    20    31   1
    33    21    32   1
@<TRIPOS>SUBSTRUCTURE
     1  MOL      6

