@<TRIPOS>MOLECULE
1loq_ligand_049
    32    33
SMALL
GAST_HUCK
****
This file was generated by PARSER (from files_GN.cpp)

@<TRIPOS>ATOM
      1 O3P        40.7247   40.1393   34.3721 O.co2       1 MOL      -0.5537
      2 P          41.0033   39.9682   35.7769 P.3         1 MOL       0.2008
      3 O1P        41.8332   38.8057   35.9642 O.co2       1 MOL      -0.5537
      4 O2P        41.8170   41.0933   36.1577 O.co2       1 MOL      -0.5537
      5 O5'        39.7446   40.0146   36.6986 O.3         1 MOL      -0.2734
      6 C5'        38.5564   39.2863   36.3009 C.3         1 MOL       0.1072
      7 C4'        38.3247   37.8925   36.9770 C.3         1 MOL       0.1182
      8 O4'        38.2832   36.8489   35.9949 O.3         1 MOL      -0.3363
      9 C3'        39.3689   37.4190   38.0123 C.3         1 MOL       0.1149
     10 O3'        39.1415   37.9940   39.2947 O.3         1 MOL      -0.3864
     11 C2'        39.2536   35.8845   37.9818 C.3         1 MOL       0.1387
     12 O2'        38.5529   35.3653   39.1093 O.3         1 MOL      -0.3836
     13 C1'        38.4853   35.5931   36.6662 C.3         1 MOL       0.2059
     14 N1         39.1891   34.6630   35.8000 N.am        1 MOL      -0.1592
     15 C2         40.3036   35.0328   35.1380 C.2         1 MOL       0.3328
     16 O2         40.7577   36.1666   35.1689 O.2         1 MOL      -0.3815
     17 N3         40.9618   34.1546   34.3898 N.am        1 MOL      -0.1865
     18 C4         40.5431   32.9045   34.2571 C.2         1 MOL       0.1822
     19 O4         41.1870   32.1632   33.5403 O.2         1 MOL      -0.4124
     20 C5         39.4205   32.4834   34.8910 C.2         1 MOL       0.0062
     21 C6         38.7624   33.3726   35.6597 C.2         1 MOL       0.0591
     22 H1         38.4654   39.1897   35.2119 H           1 MOL       0.0639
     23 H2         37.7230   39.9344   36.5941 H           1 MOL       0.0639
     24 H3         37.3383   37.9073   37.4621 H           1 MOL       0.0650
     25 H4         40.3748   37.6931   37.7012 H           1 MOL       0.0648
     26 H5         38.2502   37.6769   39.5492 H           1 MOL       0.2100
     27 H6         40.2528   35.4407   37.9858 H           1 MOL       0.0676
     28 H7         38.6223   34.3920   39.0280 H           1 MOL       0.2101
     29 H8         37.4845   35.2227   36.9120 H           1 MOL       0.0997
     30 H9         41.7599   34.4302   33.9147 H           1 MOL       0.2259
     31 H10        39.0958   31.5481   34.7908 H           1 MOL       0.0258
     32 H11        37.9525   33.0532   36.1257 H           1 MOL       0.1178
@<TRIPOS>BOND
     1     2     1  ar
     2     2     3  ar
     3     2     4  ar
     4     2     5   1
     5     5     6   1
     6     6     7   1
     7     7     8   1
     8     7     9   1
     9     8    13   1
    10     9    10   1
    11     9    11   1
    12    11    12   1
    13    11    13   1
    14    13    14   1
    15    14    15  am
    16    14    21   1
    17    15    16   2
    18    15    17  am
    19    17    18  am
    20    18    19   2
    21    18    20   1
    22    20    21   2
    23     6    22   1
    24     6    23   1
    25     7    24   1
    26     9    25   1
    27    10    26   1
    28    11    27   1
    29    12    28   1
    30    13    29   1
    31    17    30   1
    32    20    31   1
    33    21    32   1
@<TRIPOS>SUBSTRUCTURE
     1  MOL      6

