@<TRIPOS>MOLECULE
1loq_ligand_005
    32    33
SMALL
GAST_HUCK
****
This file was generated by PARSER (from files_GN.cpp)

@<TRIPOS>ATOM
      1 O3P        41.5278   33.6940   37.1088 O.co2       1 MOL      -0.5537
      2 P          40.8152   33.2393   35.9413 P.3         1 MOL       0.2008
      3 O1P        41.6918   32.3425   35.2240 O.co2       1 MOL      -0.5537
      4 O2P        39.6256   32.5265   36.3458 O.co2       1 MOL      -0.5537
      5 O5'        40.5309   34.4374   34.9945 O.3         1 MOL      -0.2734
      6 C5'        39.3711   35.2533   35.2559 C.3         1 MOL       0.1072
      7 C4'        39.7166   36.6555   35.8446 C.3         1 MOL       0.1182
      8 O4'        39.3268   37.6656   34.8904 O.3         1 MOL      -0.3363
      9 C3'        38.9979   36.9782   37.1852 C.3         1 MOL       0.1149
     10 O3'        39.8260   37.7755   38.0337 O.3         1 MOL      -0.3864
     11 C2'        37.7736   37.7622   36.7044 C.3         1 MOL       0.1387
     12 O2'        37.2400   38.6410   37.6935 O.3         1 MOL      -0.3836
     13 C1'        38.3443   38.5238   35.4864 C.3         1 MOL       0.2059
     14 N1         37.3348   38.9694   34.5401 N.am        1 MOL      -0.1592
     15 C2         36.5834   38.1041   33.8188 C.2         1 MOL       0.3328
     16 O2         36.7276   36.8892   33.8457 O.2         1 MOL      -0.3815
     17 N3         35.5971   38.5548   33.0469 N.am        1 MOL      -0.1865
     18 C4         35.3425   39.8544   32.9265 C.2         1 MOL       0.1822
     19 O4         34.4101   40.2201   32.2201 O.2         1 MOL      -0.4124
     20 C5         36.1019   40.7641   33.5949 C.2         1 MOL       0.0062
     21 C6         37.0860   40.3084   34.3893 C.2         1 MOL       0.0591
     22 H1         38.6022   34.7327   35.8428 H           1 MOL       0.0639
     23 H2         38.9274   35.3889   34.2730 H           1 MOL       0.0639
     24 H3         40.7904   36.7410   35.9904 H           1 MOL       0.0650
     25 H4         38.7036   36.0838   37.7402 H           1 MOL       0.0648
     26 H5         39.3227   37.8387   38.8782 H           1 MOL       0.2100
     27 H6         36.9942   37.0529   36.4041 H           1 MOL       0.0676
     28 H7         36.3515   38.8561   37.3542 H           1 MOL       0.2101
     29 H8         38.9172   39.3792   35.8787 H           1 MOL       0.0997
     30 H9         35.0341   37.9130   32.5744 H           1 MOL       0.2259
     31 H10        35.9375   41.7420   33.5054 H           1 MOL       0.0258
     32 H11        37.6343   40.9817   34.8837 H           1 MOL       0.1178
@<TRIPOS>BOND
     1     2     1  ar
     2     2     3  ar
     3     2     4  ar
     4     2     5   1
     5     5     6   1
     6     6     7   1
     7     7     8   1
     8     7     9   1
     9     8    13   1
    10     9    10   1
    11     9    11   1
    12    11    12   1
    13    11    13   1
    14    13    14   1
    15    14    15  am
    16    14    21   1
    17    15    16   2
    18    15    17  am
    19    17    18  am
    20    18    19   2
    21    18    20   1
    22    20    21   2
    23     6    22   1
    24     6    23   1
    25     7    24   1
    26     9    25   1
    27    10    26   1
    28    11    27   1
    29    12    28   1
    30    13    29   1
    31    17    30   1
    32    20    31   1
    33    21    32   1
@<TRIPOS>SUBSTRUCTURE
     1  MOL      6

