@<TRIPOS>MOLECULE
1loq_ligand_028
    32    33
SMALL
GAST_HUCK
****
This file was generated by PARSER (from files_GN.cpp)

@<TRIPOS>ATOM
      1 O3P        35.8504   41.8512   35.3226 O.co2       1 MOL      -0.5537
      2 P          37.1288   41.4954   35.9054 P.3         1 MOL       0.2008
      3 O1P        37.7863   42.7220   36.2967 O.co2       1 MOL      -0.5537
      4 O2P        36.9144   40.7375   37.1149 O.co2       1 MOL      -0.5537
      5 O5'        38.0856   40.7532   34.9100 O.3         1 MOL      -0.2734
      6 C5'        37.9226   39.3382   34.7212 C.3         1 MOL       0.1072
      7 C4'        38.2647   38.4902   35.9829 C.3         1 MOL       0.1182
      8 O4'        38.2610   37.0786   35.6771 O.3         1 MOL      -0.3363
      9 C3'        39.6874   38.7209   36.5357 C.3         1 MOL       0.1149
     10 O3'        39.8082   39.9287   37.2858 O.3         1 MOL      -0.3864
     11 C2'        39.9456   37.4321   37.3327 C.3         1 MOL       0.1387
     12 O2'        39.7013   37.6213   38.7283 O.3         1 MOL      -0.3836
     13 C1'        38.9416   36.3882   36.7471 C.3         1 MOL       0.2059
     14 N1         39.5900   35.1418   36.3752 N.am        1 MOL      -0.1592
     15 C2         39.6901   34.6782   35.1121 C.2         1 MOL       0.3328
     16 O2         39.1808   35.2199   34.1399 O.2         1 MOL      -0.3815
     17 N3         40.4122   33.5875   34.8416 N.am        1 MOL      -0.1865
     18 C4         41.0497   32.9242   35.7988 C.2         1 MOL       0.1822
     19 O4         41.7741   31.9862   35.4986 O.2         1 MOL      -0.4124
     20 C5         40.9054   33.3055   37.1015 C.2         1 MOL       0.0062
     21 C6         40.1732   34.4031   37.3697 C.2         1 MOL       0.0591
     22 H1         38.6123   39.0555   33.9258 H           1 MOL       0.0639
     23 H2         36.9201   39.0850   34.3564 H           1 MOL       0.0639
     24 H3         37.5212   38.6948   36.7663 H           1 MOL       0.0650
     25 H4         40.3928   38.7693   35.6995 H           1 MOL       0.0648
     26 H5         39.4336   39.7238   38.1717 H           1 MOL       0.2100
     27 H6         40.9852   37.1249   37.2002 H           1 MOL       0.0676
     28 H7         40.0955   36.8400   39.1691 H           1 MOL       0.2101
     29 H8         38.1651   36.1613   37.4811 H           1 MOL       0.0997
     30 H9         40.4916   33.2829   33.9214 H           1 MOL       0.2259
     31 H10        41.3215   32.7808   37.8348 H           1 MOL       0.0258
     32 H11        40.0888   34.6725   38.3210 H           1 MOL       0.1178
@<TRIPOS>BOND
     1     2     1  ar
     2     2     3  ar
     3     2     4  ar
     4     2     5   1
     5     5     6   1
     6     6     7   1
     7     7     8   1
     8     7     9   1
     9     8    13   1
    10     9    10   1
    11     9    11   1
    12    11    12   1
    13    11    13   1
    14    13    14   1
    15    14    15  am
    16    14    21   1
    17    15    16   2
    18    15    17  am
    19    17    18  am
    20    18    19   2
    21    18    20   1
    22    20    21   2
    23     6    22   1
    24     6    23   1
    25     7    24   1
    26     9    25   1
    27    10    26   1
    28    11    27   1
    29    12    28   1
    30    13    29   1
    31    17    30   1
    32    20    31   1
    33    21    32   1
@<TRIPOS>SUBSTRUCTURE
     1  MOL      6

