@<TRIPOS>MOLECULE
1loq_ligand_010
    32    33
SMALL
GAST_HUCK
****
This file was generated by PARSER (from files_GN.cpp)

@<TRIPOS>ATOM
      1 O3P        39.5018   32.8831   36.1095 O.co2       1 MOL      -0.5537
      2 P          40.6559   33.6892   35.8134 P.3         1 MOL       0.2008
      3 O1P        41.7241   32.7996   35.4302 O.co2       1 MOL      -0.5537
      4 O2P        40.4005   34.5160   34.6567 O.co2       1 MOL      -0.5537
      5 O5'        41.1166   34.4912   37.0694 O.3         1 MOL      -0.2734
      6 C5'        40.1312   35.1569   37.8918 C.3         1 MOL       0.1072
      7 C4'        39.9031   36.6602   37.5704 C.3         1 MOL       0.1182
      8 O4'        41.0137   37.2566   36.8884 O.3         1 MOL      -0.3363
      9 C3'        38.7119   36.9877   36.6473 C.3         1 MOL       0.1149
     10 O3'        37.4478   36.8314   37.2891 O.3         1 MOL      -0.3864
     11 C2'        39.0085   38.4423   36.2413 C.3         1 MOL       0.1387
     12 O2'        38.3223   39.3732   37.0918 O.3         1 MOL      -0.3836
     13 C1'        40.5568   38.5427   36.4143 C.3         1 MOL       0.2059
     14 N1         41.2882   38.9289   35.2152 N.am        1 MOL      -0.1592
     15 C2         42.2511   39.8804   35.2231 C.2         1 MOL       0.3328
     16 O2         42.5778   40.5092   36.2283 O.2         1 MOL      -0.3815
     17 N3         42.9254   40.1738   34.1179 N.am        1 MOL      -0.1865
     18 C4         42.6831   39.5481   32.9637 C.2         1 MOL       0.1822
     19 O4         43.3384   39.8444   31.9752 O.2         1 MOL      -0.4124
     20 C5         41.7296   38.5742   32.9071 C.2         1 MOL       0.0062
     21 C6         41.0516   38.2754   34.0341 C.2         1 MOL       0.0591
     22 H1         40.5639   35.1038   38.8936 H           1 MOL       0.0639
     23 H2         39.1785   34.6144   37.9553 H           1 MOL       0.0639
     24 H3         39.7444   37.1805   38.5241 H           1 MOL       0.0650
     25 H4         38.7360   36.3443   35.7596 H           1 MOL       0.0648
     26 H5         36.8063   37.2615   36.6847 H           1 MOL       0.2100
     27 H6         38.6925   38.6209   35.2068 H           1 MOL       0.0676
     28 H7         38.5370   40.2541   36.7138 H           1 MOL       0.2101
     29 H8         40.7580   39.2399   37.2407 H           1 MOL       0.0997
     30 H9         43.6201   40.8546   34.1396 H           1 MOL       0.2259
     31 H10        41.5346   38.0960   32.0524 H           1 MOL       0.0258
     32 H11        40.3676   37.5598   33.9787 H           1 MOL       0.1178
@<TRIPOS>BOND
     1     2     1  ar
     2     2     3  ar
     3     2     4  ar
     4     2     5   1
     5     5     6   1
     6     6     7   1
     7     7     8   1
     8     7     9   1
     9     8    13   1
    10     9    10   1
    11     9    11   1
    12    11    12   1
    13    11    13   1
    14    13    14   1
    15    14    15  am
    16    14    21   1
    17    15    16   2
    18    15    17  am
    19    17    18  am
    20    18    19   2
    21    18    20   1
    22    20    21   2
    23     6    22   1
    24     6    23   1
    25     7    24   1
    26     9    25   1
    27    10    26   1
    28    11    27   1
    29    12    28   1
    30    13    29   1
    31    17    30   1
    32    20    31   1
    33    21    32   1
@<TRIPOS>SUBSTRUCTURE
     1  MOL      6

