@<TRIPOS>MOLECULE
1loq_ligand_047
    32    33
SMALL
GAST_HUCK
****
This file was generated by PARSER (from files_GN.cpp)

@<TRIPOS>ATOM
      1 O3P        40.4867   34.3434   36.9098 O.co2       1 MOL      -0.5537
      2 P          40.4089   34.7259   38.2953 P.3         1 MOL       0.2008
      3 O1P        39.0732   34.6108   38.8203 O.co2       1 MOL      -0.5537
      4 O2P        41.2166   33.7349   38.9560 O.co2       1 MOL      -0.5537
      5 O5'        41.1871   36.0557   38.5289 O.3         1 MOL      -0.2734
      6 C5'        40.5315   37.3219   38.3267 C.3         1 MOL       0.1072
      7 C4'        39.8928   37.5209   36.9197 C.3         1 MOL       0.1182
      8 O4'        40.4286   36.6175   35.9398 O.3         1 MOL      -0.3363
      9 C3'        38.3657   37.3395   36.8912 C.3         1 MOL       0.1149
     10 O3'        37.6951   38.4927   37.4070 O.3         1 MOL      -0.3864
     11 C2'        38.1250   37.0472   35.4023 C.3         1 MOL       0.1387
     12 O2'        38.0040   38.2604   34.6492 O.3         1 MOL      -0.3836
     13 C1'        39.4007   36.2425   35.0051 C.3         1 MOL       0.2059
     14 N1         39.3856   34.7794   34.9617 N.am        1 MOL      -0.1592
     15 C2         40.4140   34.0996   34.4012 C.2         1 MOL       0.3328
     16 O2         41.4032   34.6369   33.9268 O.2         1 MOL      -0.3815
     17 N3         40.3876   32.7722   34.3096 N.am        1 MOL      -0.1865
     18 C4         39.3732   32.0649   34.7908 C.2         1 MOL       0.1822
     19 O4         39.3390   30.8525   34.6441 O.2         1 MOL      -0.4124
     20 C5         38.3770   32.6896   35.4522 C.2         1 MOL       0.0062
     21 C6         38.3882   34.0356   35.5269 C.2         1 MOL       0.0591
     22 H1         41.3200   38.0681   38.4403 H           1 MOL       0.0639
     23 H2         39.8137   37.5268   39.1278 H           1 MOL       0.0639
     24 H3         40.1246   38.5361   36.5753 H           1 MOL       0.0650
     25 H4         38.0661   36.4738   37.4872 H           1 MOL       0.0648
     26 H5         36.7573   38.3792   37.1469 H           1 MOL       0.2100
     27 H6         37.2008   36.4928   35.2399 H           1 MOL       0.0676
     28 H7         38.8738   38.7068   34.7123 H           1 MOL       0.2101
     29 H8         39.6968   36.6050   34.0159 H           1 MOL       0.0997
     30 H9         41.1129   32.3169   33.8592 H           1 MOL       0.2259
     31 H10        37.6653   32.1549   35.8880 H           1 MOL       0.0258
     32 H11        37.6673   34.4661   36.0494 H           1 MOL       0.1178
@<TRIPOS>BOND
     1     2     1  ar
     2     2     3  ar
     3     2     4  ar
     4     2     5   1
     5     5     6   1
     6     6     7   1
     7     7     8   1
     8     7     9   1
     9     8    13   1
    10     9    10   1
    11     9    11   1
    12    11    12   1
    13    11    13   1
    14    13    14   1
    15    14    15  am
    16    14    21   1
    17    15    16   2
    18    15    17  am
    19    17    18  am
    20    18    19   2
    21    18    20   1
    22    20    21   2
    23     6    22   1
    24     6    23   1
    25     7    24   1
    26     9    25   1
    27    10    26   1
    28    11    27   1
    29    12    28   1
    30    13    29   1
    31    17    30   1
    32    20    31   1
    33    21    32   1
@<TRIPOS>SUBSTRUCTURE
     1  MOL      6

