@<TRIPOS>MOLECULE
1loq_ligand_014
    32    33
SMALL
GAST_HUCK
****
This file was generated by PARSER (from files_GN.cpp)

@<TRIPOS>ATOM
      1 O3P        41.4140   34.0668   36.9384 O.co2       1 MOL      -0.5537
      2 P          40.6535   33.5985   35.8031 P.3         1 MOL       0.2008
      3 O1P        41.5574   32.8343   34.9795 O.co2       1 MOL      -0.5537
      4 O2P        39.6074   32.7312   36.2937 O.co2       1 MOL      -0.5537
      5 O5'        40.1729   34.8616   35.0282 O.3         1 MOL      -0.2734
      6 C5'        38.8594   35.3831   35.3494 C.3         1 MOL       0.1072
      7 C4'        38.7912   36.9323   35.2887 C.3         1 MOL       0.1182
      8 O4'        39.2997   37.5039   36.5009 O.3         1 MOL      -0.3363
      9 C3'        39.6087   37.6238   34.1827 C.3         1 MOL       0.1149
     10 O3'        38.9522   37.5549   32.9191 O.3         1 MOL      -0.3864
     11 C2'        39.7932   39.0529   34.7394 C.3         1 MOL       0.1387
     12 O2'        38.9175   39.9898   34.1088 O.3         1 MOL      -0.3836
     13 C1'        39.4690   38.9098   36.2549 C.3         1 MOL       0.2059
     14 N1         40.4791   39.4594   37.1482 N.am        1 MOL      -0.1592
     15 C2         41.7092   38.9091   37.2580 C.2         1 MOL       0.3328
     16 O2         42.0601   37.9215   36.6309 O.2         1 MOL      -0.3815
     17 N3         42.6143   39.4344   38.0814 N.am        1 MOL      -0.1865
     18 C4         42.3388   40.4972   38.8288 C.2         1 MOL       0.1822
     19 O4         43.2025   40.9351   39.5773 O.2         1 MOL      -0.4124
     20 C5         41.1121   41.0843   38.7559 C.2         1 MOL       0.0062
     21 C6         40.1942   40.5537   37.9210 C.2         1 MOL       0.0591
     22 H1         38.4993   35.0952   36.3454 H           1 MOL       0.0639
     23 H2         38.1630   34.9725   34.6127 H           1 MOL       0.0639
     24 H3         37.7335   37.2104   35.1874 H           1 MOL       0.0650
     25 H4         40.5892   37.1510   34.0856 H           1 MOL       0.0648
     26 H5         39.6384   37.7948   32.2595 H           1 MOL       0.2100
     27 H6         40.8194   39.3872   34.5736 H           1 MOL       0.0676
     28 H7         39.1616   40.8593   34.4905 H           1 MOL       0.2101
     29 H8         38.4868   39.3592   36.4457 H           1 MOL       0.0997
     30 H9         43.4942   39.0288   38.1369 H           1 MOL       0.2259
     31 H10        40.8960   41.8805   39.3075 H           1 MOL       0.0258
     32 H11        39.3020   40.9901   37.8725 H           1 MOL       0.1178
@<TRIPOS>BOND
     1     2     1  ar
     2     2     3  ar
     3     2     4  ar
     4     2     5   1
     5     5     6   1
     6     6     7   1
     7     7     8   1
     8     7     9   1
     9     8    13   1
    10     9    10   1
    11     9    11   1
    12    11    12   1
    13    11    13   1
    14    13    14   1
    15    14    15  am
    16    14    21   1
    17    15    16   2
    18    15    17  am
    19    17    18  am
    20    18    19   2
    21    18    20   1
    22    20    21   2
    23     6    22   1
    24     6    23   1
    25     7    24   1
    26     9    25   1
    27    10    26   1
    28    11    27   1
    29    12    28   1
    30    13    29   1
    31    17    30   1
    32    20    31   1
    33    21    32   1
@<TRIPOS>SUBSTRUCTURE
     1  MOL      6

