@<TRIPOS>MOLECULE
1loq_ligand_019
    32    33
SMALL
GAST_HUCK
****
This file was generated by PARSER (from files_GN.cpp)

@<TRIPOS>ATOM
      1 O3P        41.4326   32.9271   35.0454 O.co2       1 MOL      -0.5537
      2 P          40.5788   33.8253   35.7704 P.3         1 MOL       0.2008
      3 O1P        39.3423   33.1615   36.1073 O.co2       1 MOL      -0.5537
      4 O2P        41.2684   34.2396   36.9607 O.co2       1 MOL      -0.5537
      5 O5'        40.3778   35.0801   34.8781 O.3         1 MOL      -0.2734
      6 C5'        39.3802   36.0619   35.2387 C.3         1 MOL       0.1072
      7 C4'        40.0630   37.4558   35.2056 C.3         1 MOL       0.1182
      8 O4'        39.0605   38.4629   35.0426 O.3         1 MOL      -0.3363
      9 C3'        40.8456   37.8272   36.4923 C.3         1 MOL       0.1149
     10 O3'        42.1648   38.2837   36.1968 O.3         1 MOL      -0.3864
     11 C2'        39.9879   38.9415   37.0999 C.3         1 MOL       0.1387
     12 O2'        40.7558   39.8230   37.9196 O.3         1 MOL      -0.3836
     13 C1'        39.3620   39.6129   35.8464 C.3         1 MOL       0.2059
     14 N1         38.1873   40.4705   36.0273 N.am        1 MOL      -0.1592
     15 C2         37.2227   40.5886   35.0815 C.2         1 MOL       0.3328
     16 O2         37.2398   40.0105   34.0029 O.2         1 MOL      -0.3815
     17 N3         36.1714   41.3812   35.2795 N.am        1 MOL      -0.1865
     18 C4         36.0349   42.0996   36.3889 C.2         1 MOL       0.1822
     19 O4         35.0468   42.8027   36.5337 O.2         1 MOL      -0.4124
     20 C5         37.0016   42.0560   37.3455 C.2         1 MOL       0.0062
     21 C6         38.0670   41.2627   37.1404 C.2         1 MOL       0.0591
     22 H1         38.8881   35.9052   36.1977 H           1 MOL       0.0639
     23 H2         38.6143   36.0106   34.4635 H           1 MOL       0.0639
     24 H3         40.7183   37.5057   34.3325 H           1 MOL       0.0650
     25 H4         40.9404   36.9893   37.1859 H           1 MOL       0.0648
     26 H5         42.0644   39.0871   35.6447 H           1 MOL       0.2100
     27 H6         39.1861   38.5005   37.7010 H           1 MOL       0.0676
     28 H7         41.1105   39.2733   38.6465 H           1 MOL       0.2101
     29 H8         40.1218   40.2121   35.3361 H           1 MOL       0.0997
     30 H9         35.4826   41.4381   34.5937 H           1 MOL       0.2259
     31 H10        36.9243   42.6039   38.1758 H           1 MOL       0.0258
     32 H11        38.7691   41.2643   37.8359 H           1 MOL       0.1178
@<TRIPOS>BOND
     1     2     1  ar
     2     2     3  ar
     3     2     4  ar
     4     2     5   1
     5     5     6   1
     6     6     7   1
     7     7     8   1
     8     7     9   1
     9     8    13   1
    10     9    10   1
    11     9    11   1
    12    11    12   1
    13    11    13   1
    14    13    14   1
    15    14    15  am
    16    14    21   1
    17    15    16   2
    18    15    17  am
    19    17    18  am
    20    18    19   2
    21    18    20   1
    22    20    21   2
    23     6    22   1
    24     6    23   1
    25     7    24   1
    26     9    25   1
    27    10    26   1
    28    11    27   1
    29    12    28   1
    30    13    29   1
    31    17    30   1
    32    20    31   1
    33    21    32   1
@<TRIPOS>SUBSTRUCTURE
     1  MOL      6

