@<TRIPOS>MOLECULE
1loq_ligand_025
    32    33
SMALL
GAST_HUCK
****
This file was generated by PARSER (from files_GN.cpp)

@<TRIPOS>ATOM
      1 O3P        39.0491   35.3173   36.6581 O.co2       1 MOL      -0.5537
      2 P          38.9576   34.6800   35.3780 P.3         1 MOL       0.2008
      3 O1P        40.2101   34.8359   34.6814 O.co2       1 MOL      -0.5537
      4 O2P        38.7999   33.2851   35.6770 O.co2       1 MOL      -0.5537
      5 O5'        37.7126   35.1272   34.5483 O.3         1 MOL      -0.2734
      6 C5'        37.7984   36.3707   33.8105 C.3         1 MOL       0.1072
      7 C4'        37.2740   37.6382   34.5437 C.3         1 MOL       0.1182
      8 O4'        37.7526   37.7451   35.8931 O.3         1 MOL      -0.3363
      9 C3'        37.6856   38.9533   33.8304 C.3         1 MOL       0.1149
     10 O3'        36.5651   39.8233   33.6637 O.3         1 MOL      -0.3864
     11 C2'        38.7113   39.5488   34.8124 C.3         1 MOL       0.1387
     12 O2'        38.8281   40.9531   34.6077 O.3         1 MOL      -0.3836
     13 C1'        38.1476   39.1051   36.1881 C.3         1 MOL       0.2059
     14 N1         39.0117   39.2334   37.3647 N.am        1 MOL      -0.1592
     15 C2         39.4956   40.4294   37.7719 C.2         1 MOL       0.3328
     16 O2         39.2096   41.4957   37.2536 O.2         1 MOL      -0.3815
     17 N3         40.2872   40.5148   38.8394 N.am        1 MOL      -0.1865
     18 C4         40.5793   39.4510   39.5814 C.2         1 MOL       0.1822
     19 O4         41.2875   39.5884   40.5653 O.2         1 MOL      -0.4124
     20 C5         40.0334   38.2452   39.2758 C.2         1 MOL       0.0062
     21 C6         39.2407   38.1605   38.1924 C.2         1 MOL       0.0591
     22 H1         37.1659   36.2435   32.9292 H           1 MOL       0.0639
     23 H2         38.8051   36.5422   33.4271 H           1 MOL       0.0639
     24 H3         36.1844   37.5647   34.5910 H           1 MOL       0.0650
     25 H4         38.1389   38.7970   32.8495 H           1 MOL       0.0648
     26 H5         35.9418   39.3420   33.0789 H           1 MOL       0.2100
     27 H6         39.6887   39.0887   34.6466 H           1 MOL       0.0676
     28 H7         39.6247   41.2205   35.1108 H           1 MOL       0.2101
     29 H8         37.2429   39.6827   36.4064 H           1 MOL       0.0997
     30 H9         40.6522   41.3779   39.0934 H           1 MOL       0.2259
     31 H10        40.1572   37.4576   39.8735 H           1 MOL       0.0258
     32 H11        38.7409   37.3167   38.0619 H           1 MOL       0.1178
@<TRIPOS>BOND
     1     2     1  ar
     2     2     3  ar
     3     2     4  ar
     4     2     5   1
     5     5     6   1
     6     6     7   1
     7     7     8   1
     8     7     9   1
     9     8    13   1
    10     9    10   1
    11     9    11   1
    12    11    12   1
    13    11    13   1
    14    13    14   1
    15    14    15  am
    16    14    21   1
    17    15    16   2
    18    15    17  am
    19    17    18  am
    20    18    19   2
    21    18    20   1
    22    20    21   2
    23     6    22   1
    24     6    23   1
    25     7    24   1
    26     9    25   1
    27    10    26   1
    28    11    27   1
    29    12    28   1
    30    13    29   1
    31    17    30   1
    32    20    31   1
    33    21    32   1
@<TRIPOS>SUBSTRUCTURE
     1  MOL      6

