@<TRIPOS>MOLECULE
1loq_ligand_037
    32    33
SMALL
GAST_HUCK
****
This file was generated by PARSER (from files_GN.cpp)

@<TRIPOS>ATOM
      1 O3P        39.9426   42.9314   35.5144 O.co2       1 MOL      -0.5537
      2 P          38.6922   42.3223   35.1321 P.3         1 MOL       0.2008
      3 O1P        37.6351   43.2474   35.4502 O.co2       1 MOL      -0.5537
      4 O2P        38.7134   42.0855   33.7096 O.co2       1 MOL      -0.5537
      5 O5'        38.5452   41.0221   35.9762 O.3         1 MOL      -0.2734
      6 C5'        37.4437   40.1398   35.6727 C.3         1 MOL       0.1072
      7 C4'        37.9042   38.8719   34.9003 C.3         1 MOL       0.1182
      8 O4'        38.9364   39.1945   33.9600 O.3         1 MOL      -0.3363
      9 C3'        38.5036   37.7670   35.7920 C.3         1 MOL       0.1149
     10 O3'        37.5037   36.9601   36.4164 O.3         1 MOL      -0.3864
     11 C2'        39.4120   36.9880   34.8211 C.3         1 MOL       0.1387
     12 O2'        38.8137   35.7767   34.3434 O.3         1 MOL      -0.3836
     13 C1'        39.6560   37.9903   33.6611 C.3         1 MOL       0.2059
     14 N1         41.0658   38.2913   33.4368 N.am        1 MOL      -0.1592
     15 C2         41.8087   38.9542   34.3487 C.2         1 MOL       0.3328
     16 O2         41.3628   39.3910   35.4007 O.2         1 MOL      -0.3815
     17 N3         43.1115   39.1388   34.1428 N.am        1 MOL      -0.1865
     18 C4         43.7137   38.6992   33.0411 C.2         1 MOL       0.1822
     19 O4         44.9184   38.8523   32.9276 O.2         1 MOL      -0.4124
     20 C5         42.9906   38.0734   32.0720 C.2         1 MOL       0.0062
     21 C6         41.6747   37.8814   32.2832 C.2         1 MOL       0.0591
     22 H1         36.6274   40.6155   35.1201 H           1 MOL       0.0639
     23 H2         37.0197   39.8359   36.6295 H           1 MOL       0.0639
     24 H3         37.0491   38.4627   34.3496 H           1 MOL       0.0650
     25 H4         39.1154   38.2168   36.5762 H           1 MOL       0.0648
     26 H5         36.9538   36.6106   35.6837 H           1 MOL       0.2100
     27 H6         40.3389   36.7150   35.3322 H           1 MOL       0.0676
     28 H7         38.7003   35.2214   35.1448 H           1 MOL       0.2101
     29 H8         39.1830   37.5922   32.7528 H           1 MOL       0.0997
     30 H9         43.6414   39.5906   34.8204 H           1 MOL       0.2259
     31 H10        43.4173   37.7715   31.2276 H           1 MOL       0.0258
     32 H11        41.1503   37.4334   31.5630 H           1 MOL       0.1178
@<TRIPOS>BOND
     1     2     1  ar
     2     2     3  ar
     3     2     4  ar
     4     2     5   1
     5     5     6   1
     6     6     7   1
     7     7     8   1
     8     7     9   1
     9     8    13   1
    10     9    10   1
    11     9    11   1
    12    11    12   1
    13    11    13   1
    14    13    14   1
    15    14    15  am
    16    14    21   1
    17    15    16   2
    18    15    17  am
    19    17    18  am
    20    18    19   2
    21    18    20   1
    22    20    21   2
    23     6    22   1
    24     6    23   1
    25     7    24   1
    26     9    25   1
    27    10    26   1
    28    11    27   1
    29    12    28   1
    30    13    29   1
    31    17    30   1
    32    20    31   1
    33    21    32   1
@<TRIPOS>SUBSTRUCTURE
     1  MOL      6

