@<TRIPOS>MOLECULE
1loq_ligand_009
    32    33
SMALL
GAST_HUCK
****
This file was generated by PARSER (from files_GN.cpp)

@<TRIPOS>ATOM
      1 O3P        39.3151   33.5625   34.1062 O.co2       1 MOL      -0.5537
      2 P          40.1643   33.3073   35.2451 P.3         1 MOL       0.2008
      3 O1P        39.3869   32.5846   36.2238 O.co2       1 MOL      -0.5537
      4 O2P        41.2468   32.4776   34.7673 O.co2       1 MOL      -0.5537
      5 O5'        40.7623   34.6755   35.7053 O.3         1 MOL      -0.2734
      6 C5'        40.4070   35.2210   36.9931 C.3         1 MOL       0.1072
      7 C4'        39.0551   36.0128   37.0790 C.3         1 MOL       0.1182
      8 O4'        39.3287   37.3550   37.5407 O.3         1 MOL      -0.3363
      9 C3'        38.2059   36.1598   35.7814 C.3         1 MOL       0.1149
     10 O3'        36.8004   36.0435   36.0598 O.3         1 MOL      -0.3864
     11 C2'        38.6017   37.5513   35.2748 C.3         1 MOL       0.1387
     12 O2'        37.6091   38.1349   34.4325 O.3         1 MOL      -0.3836
     13 C1'        38.8269   38.3170   36.5956 C.3         1 MOL       0.2059
     14 N1         39.6655   39.4993   36.4260 N.am        1 MOL      -0.1592
     15 C2         41.0085   39.4256   36.2834 C.2         1 MOL       0.3328
     16 O2         41.6446   38.3815   36.3205 O.2         1 MOL      -0.3815
     17 N3         41.7253   40.5295   36.0618 N.am        1 MOL      -0.1865
     18 C4         41.1478   41.7239   35.9534 C.2         1 MOL       0.1822
     19 O4         41.8442   42.6996   35.7188 O.2         1 MOL      -0.4124
     20 C5         39.7977   41.8433   36.0860 C.2         1 MOL       0.0062
     21 C6         39.0788   40.7337   36.3356 C.2         1 MOL       0.0591
     22 H1         41.2259   35.9040   37.2324 H           1 MOL       0.0639
     23 H2         40.4444   34.4597   37.7787 H           1 MOL       0.0639
     24 H3         38.4389   35.5234   37.8418 H           1 MOL       0.0650
     25 H4         38.4311   35.4041   35.0253 H           1 MOL       0.0648
     26 H5         36.4593   36.9492   36.2198 H           1 MOL       0.2100
     27 H6         39.5370   37.4722   34.7150 H           1 MOL       0.0676
     28 H7         37.9123   39.0554   34.2838 H           1 MOL       0.2101
     29 H8         37.8366   38.6015   36.9855 H           1 MOL       0.0997
     30 H9         42.6879   40.4605   35.9612 H           1 MOL       0.2259
     31 H10        39.3532   42.7226   35.9927 H           1 MOL       0.0258
     32 H11        38.0944   40.8330   36.4311 H           1 MOL       0.1178
@<TRIPOS>BOND
     1     2     1  ar
     2     2     3  ar
     3     2     4  ar
     4     2     5   1
     5     5     6   1
     6     6     7   1
     7     7     8   1
     8     7     9   1
     9     8    13   1
    10     9    10   1
    11     9    11   1
    12    11    12   1
    13    11    13   1
    14    13    14   1
    15    14    15  am
    16    14    21   1
    17    15    16   2
    18    15    17  am
    19    17    18  am
    20    18    19   2
    21    18    20   1
    22    20    21   2
    23     6    22   1
    24     6    23   1
    25     7    24   1
    26     9    25   1
    27    10    26   1
    28    11    27   1
    29    12    28   1
    30    13    29   1
    31    17    30   1
    32    20    31   1
    33    21    32   1
@<TRIPOS>SUBSTRUCTURE
     1  MOL      6

