@<TRIPOS>MOLECULE
1loq_ligand_013
    32    33
SMALL
GAST_HUCK
****
This file was generated by PARSER (from files_GN.cpp)

@<TRIPOS>ATOM
      1 O3P        41.3328   32.5868   34.8400 O.co2       1 MOL      -0.5537
      2 P          40.2244   33.3924   35.2878 P.3         1 MOL       0.2008
      3 O1P        39.3861   33.6424   34.1452 O.co2       1 MOL      -0.5537
      4 O2P        39.4565   32.6589   36.2658 O.co2       1 MOL      -0.5537
      5 O5'        40.7745   34.7657   35.7714 O.3         1 MOL      -0.2734
      6 C5'        40.2019   35.3982   36.9387 C.3         1 MOL       0.1072
      7 C4'        38.9737   36.3160   36.6630 C.3         1 MOL       0.1182
      8 O4'        39.4299   37.5000   35.9807 O.3         1 MOL      -0.3363
      9 C3'        37.8351   35.6936   35.8129 C.3         1 MOL       0.1149
     10 O3'        36.5454   35.9856   36.3610 O.3         1 MOL      -0.3864
     11 C2'        38.0339   36.3734   34.4520 C.3         1 MOL       0.1387
     12 O2'        36.8501   36.4174   33.6514 O.3         1 MOL      -0.3836
     13 C1'        38.5587   37.7643   34.8698 C.3         1 MOL       0.2059
     14 N1         39.2609   38.5007   33.8248 N.am        1 MOL      -0.1592
     15 C2         38.8336   39.6992   33.3654 C.2         1 MOL       0.3328
     16 O2         37.8262   40.2622   33.7695 O.2         1 MOL      -0.3815
     17 N3         39.5202   40.3327   32.4164 N.am        1 MOL      -0.1865
     18 C4         40.6306   39.8175   31.8971 C.2         1 MOL       0.1822
     19 O4         41.2195   40.4389   31.0251 O.2         1 MOL      -0.4124
     20 C5         41.1025   38.6221   32.3385 C.2         1 MOL       0.0062
     21 C6         40.4168   37.9852   33.3044 C.2         1 MOL       0.0591
     22 H1         40.9990   36.0330   37.3387 H           1 MOL       0.0639
     23 H2         39.9507   34.6897   37.7376 H           1 MOL       0.0639
     24 H3         38.5809   36.6348   37.6329 H           1 MOL       0.0650
     25 H4         37.9139   34.6074   35.7396 H           1 MOL       0.0648
     26 H5         36.4026   36.9500   36.2601 H           1 MOL       0.2100
     27 H6         38.7966   35.8266   33.8904 H           1 MOL       0.0676
     28 H7         37.1170   36.8907   32.8363 H           1 MOL       0.2101
     29 H8         37.7158   38.3437   35.2673 H           1 MOL       0.0997
     30 H9         39.2017   41.1923   32.0974 H           1 MOL       0.2259
     31 H10        41.9369   38.2272   31.9711 H           1 MOL       0.0258
     32 H11        40.7803   37.1223   33.6413 H           1 MOL       0.1178
@<TRIPOS>BOND
     1     2     1  ar
     2     2     3  ar
     3     2     4  ar
     4     2     5   1
     5     5     6   1
     6     6     7   1
     7     7     8   1
     8     7     9   1
     9     8    13   1
    10     9    10   1
    11     9    11   1
    12    11    12   1
    13    11    13   1
    14    13    14   1
    15    14    15  am
    16    14    21   1
    17    15    16   2
    18    15    17  am
    19    17    18  am
    20    18    19   2
    21    18    20   1
    22    20    21   2
    23     6    22   1
    24     6    23   1
    25     7    24   1
    26     9    25   1
    27    10    26   1
    28    11    27   1
    29    12    28   1
    30    13    29   1
    31    17    30   1
    32    20    31   1
    33    21    32   1
@<TRIPOS>SUBSTRUCTURE
     1  MOL      6

