@<TRIPOS>MOLECULE
1loq_ligand_026
    32    33
SMALL
GAST_HUCK
****
This file was generated by PARSER (from files_GN.cpp)

@<TRIPOS>ATOM
      1 O3P        42.3560   38.6143   36.4285 O.co2       1 MOL      -0.5537
      2 P          41.5567   39.2759   37.4317 P.3         1 MOL       0.2008
      3 O1P        42.4707   39.6341   38.4961 O.co2       1 MOL      -0.5537
      4 O2P        40.9767   40.4941   36.9305 O.co2       1 MOL      -0.5537
      5 O5'        40.5800   38.2514   38.0964 O.3         1 MOL      -0.2734
      6 C5'        39.1609   38.4247   37.9351 C.3         1 MOL       0.1072
      7 C4'        38.4891   37.5620   36.8363 C.3         1 MOL       0.1182
      8 O4'        38.6410   38.1325   35.5273 O.3         1 MOL      -0.3363
      9 C3'        38.9978   36.1025   36.7284 C.3         1 MOL       0.1149
     10 O3'        38.1451   35.2036   37.4420 O.3         1 MOL      -0.3864
     11 C2'        39.0135   35.8386   35.2046 C.3         1 MOL       0.1387
     12 O2'        38.4224   34.6030   34.7841 O.3         1 MOL      -0.3836
     13 C1'        38.2975   37.0726   34.6129 C.3         1 MOL       0.2059
     14 N1         38.6738   37.3168   33.2297 N.am        1 MOL      -0.1592
     15 C2         37.8294   37.0222   32.2140 C.2         1 MOL       0.3328
     16 O2         36.7177   36.5216   32.3693 O.2         1 MOL      -0.3815
     17 N3         38.2025   37.2454   30.9513 N.am        1 MOL      -0.1865
     18 C4         39.4060   37.7366   30.6514 C.2         1 MOL       0.1822
     19 O4         39.6929   37.9141   29.4731 O.2         1 MOL      -0.4124
     20 C5         40.2895   38.0282   31.6442 C.2         1 MOL       0.0062
     21 C6         39.9183   37.8031   32.9239 C.2         1 MOL       0.0591
     22 H1         38.8840   39.4775   37.8178 H           1 MOL       0.0639
     23 H2         38.7505   38.0934   38.8949 H           1 MOL       0.0639
     24 H3         37.4139   37.5498   37.0687 H           1 MOL       0.0650
     25 H4         40.0168   36.0111   37.1261 H           1 MOL       0.0648
     26 H5         38.7407   34.7773   38.1024 H           1 MOL       0.2100
     27 H6         40.0570   35.8363   34.8677 H           1 MOL       0.0676
     28 H7         38.8784   33.9137   35.3092 H           1 MOL       0.2101
     29 H8         37.2101   36.9257   34.6878 H           1 MOL       0.0997
     30 H9         37.5830   37.0355   30.2297 H           1 MOL       0.2259
     31 H10        41.1970   38.3816   31.4321 H           1 MOL       0.0258
     32 H11        40.5683   38.0151   33.6458 H           1 MOL       0.1178
@<TRIPOS>BOND
     1     2     1  ar
     2     2     3  ar
     3     2     4  ar
     4     2     5   1
     5     5     6   1
     6     6     7   1
     7     7     8   1
     8     7     9   1
     9     8    13   1
    10     9    10   1
    11     9    11   1
    12    11    12   1
    13    11    13   1
    14    13    14   1
    15    14    15  am
    16    14    21   1
    17    15    16   2
    18    15    17  am
    19    17    18  am
    20    18    19   2
    21    18    20   1
    22    20    21   2
    23     6    22   1
    24     6    23   1
    25     7    24   1
    26     9    25   1
    27    10    26   1
    28    11    27   1
    29    12    28   1
    30    13    29   1
    31    17    30   1
    32    20    31   1
    33    21    32   1
@<TRIPOS>SUBSTRUCTURE
     1  MOL      6

