@<TRIPOS>MOLECULE
1loq_ligand_020
    32    33
SMALL
GAST_HUCK
****
This file was generated by PARSER (from files_GN.cpp)

@<TRIPOS>ATOM
      1 O3P        41.0949   32.2200   34.6858 O.co2       1 MOL      -0.5537
      2 P          39.7800   32.6245   35.1282 P.3         1 MOL       0.2008
      3 O1P        39.1907   33.5233   34.1686 O.co2       1 MOL      -0.5537
      4 O2P        38.9599   31.4375   35.1395 O.co2       1 MOL      -0.5537
      5 O5'        39.7500   33.2261   36.5778 O.3         1 MOL      -0.2734
      6 C5'        40.8439   34.0830   36.9774 C.3         1 MOL       0.1072
      7 C4'        40.5599   35.6052   36.8564 C.3         1 MOL       0.1182
      8 O4'        40.0492   35.9860   35.5718 O.3         1 MOL      -0.3363
      9 C3'        39.5070   36.1275   37.8492 C.3         1 MOL       0.1149
     10 O3'        40.0811   36.3406   39.1332 O.3         1 MOL      -0.3864
     11 C2'        38.9950   37.4076   37.1680 C.3         1 MOL       0.1387
     12 O2'        39.4223   38.5984   37.8392 O.3         1 MOL      -0.3836
     13 C1'        39.5381   37.3332   35.7080 C.3         1 MOL       0.2059
     14 N1         38.5591   37.7546   34.7175 N.am        1 MOL      -0.1592
     15 C2         38.1215   39.0397   34.6658 C.2         1 MOL       0.3328
     16 O2         38.5323   39.9204   35.4123 O.2         1 MOL      -0.3815
     17 N3         37.1857   39.4061   33.7936 N.am        1 MOL      -0.1865
     18 C4         36.6729   38.5407   32.9203 C.2         1 MOL       0.1822
     19 O4         35.8111   38.9163   32.1407 O.2         1 MOL      -0.4124
     20 C5         37.1147   37.2494   32.9009 C.2         1 MOL       0.0062
     21 C6         38.0420   36.8805   33.8032 C.2         1 MOL       0.0591
     22 H1         41.7952   33.8514   36.4803 H           1 MOL       0.0639
     23 H2         40.9875   33.8568   38.0407 H           1 MOL       0.0639
     24 H3         41.5039   36.1275   37.0342 H           1 MOL       0.0650
     25 H4         38.6866   35.4075   37.9411 H           1 MOL       0.0648
     26 H5         39.4080   36.8737   39.6289 H           1 MOL       0.2100
     27 H6         37.8932   37.4118   37.1828 H           1 MOL       0.0676
     28 H7         40.4076   38.5582   37.8313 H           1 MOL       0.2101
     29 H8         40.4080   38.0001   35.6068 H           1 MOL       0.0997
     30 H9         36.8745   40.3281   33.7787 H           1 MOL       0.2259
     31 H10        36.7626   36.5962   32.2347 H           1 MOL       0.0258
     32 H11        38.3571   35.9407   33.7786 H           1 MOL       0.1178
@<TRIPOS>BOND
     1     2     1  ar
     2     2     3  ar
     3     2     4  ar
     4     2     5   1
     5     5     6   1
     6     6     7   1
     7     7     8   1
     8     7     9   1
     9     8    13   1
    10     9    10   1
    11     9    11   1
    12    11    12   1
    13    11    13   1
    14    13    14   1
    15    14    15  am
    16    14    21   1
    17    15    16   2
    18    15    17  am
    19    17    18  am
    20    18    19   2
    21    18    20   1
    22    20    21   2
    23     6    22   1
    24     6    23   1
    25     7    24   1
    26     9    25   1
    27    10    26   1
    28    11    27   1
    29    12    28   1
    30    13    29   1
    31    17    30   1
    32    20    31   1
    33    21    32   1
@<TRIPOS>SUBSTRUCTURE
     1  MOL      6

