@<TRIPOS>MOLECULE
1loq_ligand_008
    32    33
SMALL
GAST_HUCK
****
This file was generated by PARSER (from files_GN.cpp)

@<TRIPOS>ATOM
      1 O3P        39.1470   32.8074   33.9883 O.co2       1 MOL      -0.5537
      2 P          40.0776   33.0642   35.0636 P.3         1 MOL       0.2008
      3 O1P        39.4927   32.5824   36.2900 O.co2       1 MOL      -0.5537
      4 O2P        41.2849   32.3336   34.7851 O.co2       1 MOL      -0.5537
      5 O5'        40.4021   34.5912   35.0163 O.3         1 MOL      -0.2734
      6 C5'        39.8726   35.4457   36.0536 C.3         1 MOL       0.1072
      7 C4'        39.7317   36.8975   35.5223 C.3         1 MOL       0.1182
      8 O4'        39.9924   36.9861   34.1137 O.3         1 MOL      -0.3363
      9 C3'        38.3027   37.4809   35.6273 C.3         1 MOL       0.1149
     10 O3'        37.9541   37.8433   36.9612 O.3         1 MOL      -0.3864
     11 C2'        38.3431   38.6600   34.6402 C.3         1 MOL       0.1387
     12 O2'        38.6785   39.8830   35.2903 O.3         1 MOL      -0.3836
     13 C1'        39.4416   38.2170   33.6208 C.3         1 MOL       0.2059
     14 N1         39.0129   37.9761   32.2470 N.am        1 MOL      -0.1592
     15 C2         39.7218   38.4202   31.1850 C.2         1 MOL       0.3328
     16 O2         40.7769   39.0374   31.2779 O.2         1 MOL      -0.3815
     17 N3         39.2995   38.1735   29.9442 N.am        1 MOL      -0.1865
     18 C4         38.1728   37.5000   29.7107 C.2         1 MOL       0.1822
     19 O4         37.8236   37.3063   28.5558 O.2         1 MOL      -0.4124
     20 C5         37.4400   37.0188   30.7476 C.2         1 MOL       0.0062
     21 C6         37.8944   37.2283   31.9984 C.2         1 MOL       0.0591
     22 H1         40.5748   35.4253   36.8872 H           1 MOL       0.0639
     23 H2         38.9098   35.1034   36.4371 H           1 MOL       0.0639
     24 H3         40.4306   37.5542   36.0542 H           1 MOL       0.0650
     25 H4         37.5817   36.7389   35.2745 H           1 MOL       0.0648
     26 H5         37.0056   38.0631   36.9107 H           1 MOL       0.2100
     27 H6         37.3652   38.8075   34.1825 H           1 MOL       0.0676
     28 H7         38.6873   40.5458   34.5617 H           1 MOL       0.2101
     29 H8         40.2584   38.9500   33.6623 H           1 MOL       0.0997
     30 H9         39.8223   38.4915   29.1933 H           1 MOL       0.2259
     31 H10        36.5990   36.5105   30.5919 H           1 MOL       0.0258
     32 H11        37.3493   36.8542   32.7370 H           1 MOL       0.1178
@<TRIPOS>BOND
     1     2     1  ar
     2     2     3  ar
     3     2     4  ar
     4     2     5   1
     5     5     6   1
     6     6     7   1
     7     7     8   1
     8     7     9   1
     9     8    13   1
    10     9    10   1
    11     9    11   1
    12    11    12   1
    13    11    13   1
    14    13    14   1
    15    14    15  am
    16    14    21   1
    17    15    16   2
    18    15    17  am
    19    17    18  am
    20    18    19   2
    21    18    20   1
    22    20    21   2
    23     6    22   1
    24     6    23   1
    25     7    24   1
    26     9    25   1
    27    10    26   1
    28    11    27   1
    29    12    28   1
    30    13    29   1
    31    17    30   1
    32    20    31   1
    33    21    32   1
@<TRIPOS>SUBSTRUCTURE
     1  MOL      6

