@<TRIPOS>MOLECULE
1lor_ligand_021
    33    34
SMALL
GAST_HUCK
****
This file was generated by PARSER (from files_GN.cpp)

@<TRIPOS>ATOM
      1 P          39.4431   33.8811   35.5584 P.3         1 BMP       0.2008
      2 O1P        40.7116   33.5966   36.1769 O.co2       1 BMP      -0.5537
      3 O2P        39.7283   34.3382   34.2243 O.co2       1 BMP      -0.5537
      4 O3P        38.7006   32.6492   35.4883 O.co2       1 BMP      -0.5537
      5 O5'        38.7226   34.9628   36.4291 O.3         1 BMP      -0.2734
      6 C5'        37.8002   35.8633   35.7746 C.3         1 BMP       0.1071
      7 C4'        38.3372   37.3213   35.7028 C.3         1 BMP       0.1181
      8 O4'        38.3054   37.9171   37.0018 O.3         1 BMP      -0.3367
      9 C3'        39.8031   37.4899   35.2467 C.3         1 BMP       0.1148
     10 O3'        39.9215   37.4640   33.8264 O.3         1 BMP      -0.3864
     11 C2'        40.2376   38.8264   35.8791 C.3         1 BMP       0.1383
     12 O2'        40.2594   39.8897   34.9202 O.3         1 BMP      -0.3837
     13 C1'        39.1665   39.0689   36.9750 C.3         1 BMP       0.2082
     14 N1         39.7461   39.3527   38.2839 N.am        1 BMP      -0.1249
     15 C2         40.0861   38.3606   39.1392 C.2         1 BMP       0.3330
     16 O2         39.9732   37.1696   38.8820 O.2         1 BMP      -0.3821
     17 N3         40.5988   38.6496   40.3335 N.am        1 BMP      -0.1915
     18 C4         40.8388   39.9013   40.7081 C.2         1 BMP       0.1636
     19 O4         41.3292   40.1112   41.8078 O.2         1 BMP      -0.4266
     20 C5         40.5662   40.9265   39.8605 C.2         1 BMP       0.0219
     21 C6         40.0131   40.6460   38.6625 C.2         1 BMP       0.2117
     22 O1         39.7738   41.6816   37.8685 O.3         1 BMP      -0.2890
     23 H1         36.8910   35.8745   36.3785 H           1 BMP       0.0639
     24 H2         37.5012   35.5323   34.7747 H           1 BMP       0.0639
     25 H3         37.6774   37.8989   35.0428 H           1 BMP       0.0650
     26 H4         40.4228   36.6925   35.6637 H           1 BMP       0.0648
     27 H5         39.3807   36.6983   33.5458 H           1 BMP       0.2100
     28 H6         41.2419   38.7307   36.3053 H           1 BMP       0.0675
     29 H7         40.6327   40.6729   35.3797 H           1 BMP       0.2101
     30 H8         38.5092   39.8830   36.6493 H           1 BMP       0.0991
     31 H9         40.8141   37.9269   40.9418 H           1 BMP       0.2246
     32 H10        40.7766   41.8636   40.1209 H           1 BMP       0.0051
     33 H11        38.8225   41.6265   37.6416 H           1 BMP       0.2637
@<TRIPOS>BOND
     1     1     5   1
     2     1     4  ar
     3     1     3  ar
     4     1     2  ar
     5     5     6   1
     6     6     7   1
     7     7     9   1
     8     7     8   1
     9     8    13   1
    10    13    14  am
    11    13    11   1
    12    11    12   1
    13    11     9   1
    14     9    10   1
    15    14    21   1
    16    14    15  am
    17    15    17  am
    18    15    16   2
    19    17    18  am
    20    18    20   1
    21    18    19   2
    22    20    21   2
    23    21    22   1
    24     6    23   1
    25     6    24   1
    26     7    25   1
    27     9    26   1
    28    10    27   1
    29    11    28   1
    30    12    29   1
    31    13    30   1
    32    17    31   1
    33    20    32   1
    34    22    33   1
@<TRIPOS>SUBSTRUCTURE
     1  BMP      6

