@<TRIPOS>MOLECULE
1lor_ligand_012
    33    34
SMALL
GAST_HUCK
****
This file was generated by PARSER (from files_GN.cpp)

@<TRIPOS>ATOM
      1 P          39.9528   33.5592   34.9894 P.3         1 BMP       0.2008
      2 O1P        41.2825   34.1308   34.9683 O.co2       1 BMP      -0.5537
      3 O2P        39.9844   32.3012   34.2804 O.co2       1 BMP      -0.5537
      4 O3P        39.5872   33.2341   36.3458 O.co2       1 BMP      -0.5537
      5 O5'        38.8596   34.4805   34.3741 O.3         1 BMP      -0.2734
      6 C5'        38.8444   35.9112   34.6246 C.3         1 BMP       0.1071
      7 C4'        39.2378   36.4199   36.0446 C.3         1 BMP       0.1181
      8 O4'        40.5123   37.0860   35.9862 O.3         1 BMP      -0.3367
      9 C3'        38.3325   37.4798   36.7120 C.3         1 BMP       0.1148
     10 O3'        37.1230   36.9218   37.2139 O.3         1 BMP      -0.3864
     11 C2'        39.2623   38.0342   37.8115 C.3         1 BMP       0.1383
     12 O2'        39.0657   37.3261   39.0357 O.3         1 BMP      -0.3837
     13 C1'        40.6927   37.7801   37.2321 C.3         1 BMP       0.2082
     14 N1         41.5837   38.9204   37.0202 N.am        1 BMP      -0.1249
     15 C2         41.1337   40.1037   36.5457 C.2         1 BMP       0.3330
     16 O2         39.9878   40.2793   36.1539 O.2         1 BMP      -0.3821
     17 N3         41.9471   41.1579   36.4869 N.am        1 BMP      -0.1915
     18 C4         43.2348   41.0680   36.8169 C.2         1 BMP       0.1636
     19 O4         43.9409   42.0645   36.7505 O.2         1 BMP      -0.4266
     20 C5         43.7603   39.8638   37.1644 C.2         1 BMP       0.0219
     21 C6         42.9376   38.7970   37.2475 C.2         1 BMP       0.2117
     22 O1         43.4882   37.5956   37.4418 O.3         1 BMP      -0.2890
     23 H1         37.8251   36.2342   34.4018 H           1 BMP       0.0639
     24 H2         39.4865   36.3889   33.8783 H           1 BMP       0.0639
     25 H3         39.3011   35.5610   36.7180 H           1 BMP       0.0650
     26 H4         38.0840   38.2841   36.0055 H           1 BMP       0.0648
     27 H5         36.4160   37.2788   36.6363 H           1 BMP       0.2100
     28 H6         39.0627   39.0981   38.0051 H           1 BMP       0.0675
     29 H7         39.6146   37.8069   39.6953 H           1 BMP       0.2101
     30 H8         41.1661   37.0588   37.9049 H           1 BMP       0.0991
     31 H9         41.5915   42.0139   36.2092 H           1 BMP       0.2246
     32 H10        44.7440   39.7714   37.2880 H           1 BMP       0.0051
     33 H11        44.3759   37.6047   37.0211 H           1 BMP       0.2637
@<TRIPOS>BOND
     1     1     5   1
     2     1     4  ar
     3     1     3  ar
     4     1     2  ar
     5     5     6   1
     6     6     7   1
     7     7     9   1
     8     7     8   1
     9     8    13   1
    10    13    14  am
    11    13    11   1
    12    11    12   1
    13    11     9   1
    14     9    10   1
    15    14    21   1
    16    14    15  am
    17    15    17  am
    18    15    16   2
    19    17    18  am
    20    18    20   1
    21    18    19   2
    22    20    21   2
    23    21    22   1
    24     6    23   1
    25     6    24   1
    26     7    25   1
    27     9    26   1
    28    10    27   1
    29    11    28   1
    30    12    29   1
    31    13    30   1
    32    17    31   1
    33    20    32   1
    34    22    33   1
@<TRIPOS>SUBSTRUCTURE
     1  BMP      6

