@<TRIPOS>MOLECULE
1lor_ligand_007
    33    34
SMALL
GAST_HUCK
****
This file was generated by PARSER (from files_GN.cpp)

@<TRIPOS>ATOM
      1 P          37.5886   37.3504   32.6138 P.3         1 BMP       0.2008
      2 O1P        36.4981   38.2872   32.6035 O.co2       1 BMP      -0.5537
      3 O2P        36.9523   36.0565   32.7057 O.co2       1 BMP      -0.5537
      4 O3P        38.2935   37.3620   31.3518 O.co2       1 BMP      -0.5537
      5 O5'        38.5564   37.3877   33.8285 O.3         1 BMP      -0.2734
      6 C5'        38.7554   38.6517   34.4974 C.3         1 BMP       0.1071
      7 C4'        39.3880   38.3709   35.8875 C.3         1 BMP       0.1181
      8 O4'        40.8025   38.6154   35.8645 O.3         1 BMP      -0.3367
      9 C3'        38.9134   39.2841   37.0330 C.3         1 BMP       0.1148
     10 O3'        37.6076   38.9480   37.5001 O.3         1 BMP      -0.3864
     11 C2'        40.0106   39.0794   38.0954 C.3         1 BMP       0.1383
     12 O2'        39.6586   38.0904   39.0655 O.3         1 BMP      -0.3837
     13 C1'        41.2315   38.6286   37.2349 C.3         1 BMP       0.2082
     14 N1         42.4551   39.4209   37.3584 N.am        1 BMP      -0.1249
     15 C2         43.6573   38.8110   37.5024 C.2         1 BMP       0.3330
     16 O2         43.8292   37.5957   37.5103 O.2         1 BMP      -0.3821
     17 N3         44.7646   39.5350   37.6267 N.am        1 BMP      -0.1915
     18 C4         44.7438   40.8643   37.5709 C.2         1 BMP       0.1636
     19 O4         45.7999   41.4744   37.6698 O.2         1 BMP      -0.4266
     20 C5         43.5642   41.5213   37.4099 C.2         1 BMP       0.0219
     21 C6         42.4314   40.7961   37.2973 C.2         1 BMP       0.2117
     22 O1         41.2983   41.4928   37.2214 O.3         1 BMP      -0.2890
     23 H1         37.7952   39.1619   34.6298 H           1 BMP       0.0639
     24 H2         39.4216   39.2976   33.9200 H           1 BMP       0.0639
     25 H3         39.1946   37.3255   36.1734 H           1 BMP       0.0650
     26 H4         38.9090   40.3255   36.6960 H           1 BMP       0.0648
     27 H5         37.1157   38.6556   36.7043 H           1 BMP       0.2100
     28 H6         40.1895   40.0071   38.6421 H           1 BMP       0.0675
     29 H7         39.3612   37.3122   38.5473 H           1 BMP       0.2101
     30 H8         41.4201   37.5720   37.4714 H           1 BMP       0.0991
     31 H9         45.6117   39.0801   37.7608 H           1 BMP       0.2246
     32 H10        43.5474   42.5162   37.3807 H           1 BMP       0.0051
     33 H11        41.1816   41.7085   36.2797 H           1 BMP       0.2637
@<TRIPOS>BOND
     1     1     5   1
     2     1     4  ar
     3     1     3  ar
     4     1     2  ar
     5     5     6   1
     6     6     7   1
     7     7     9   1
     8     7     8   1
     9     8    13   1
    10    13    14  am
    11    13    11   1
    12    11    12   1
    13    11     9   1
    14     9    10   1
    15    14    21   1
    16    14    15  am
    17    15    17  am
    18    15    16   2
    19    17    18  am
    20    18    20   1
    21    18    19   2
    22    20    21   2
    23    21    22   1
    24     6    23   1
    25     6    24   1
    26     7    25   1
    27     9    26   1
    28    10    27   1
    29    11    28   1
    30    12    29   1
    31    13    30   1
    32    17    31   1
    33    20    32   1
    34    22    33   1
@<TRIPOS>SUBSTRUCTURE
     1  BMP      6

