@<TRIPOS>MOLECULE
1lor_ligand_011
    33    34
SMALL
GAST_HUCK
****
This file was generated by PARSER (from files_GN.cpp)

@<TRIPOS>ATOM
      1 P          42.5387   42.3378   41.0238 P.3         1 BMP       0.2008
      2 O1P        42.6906   43.7718   41.1144 O.co2       1 BMP      -0.5537
      3 O2P        43.8518   41.7800   40.7967 O.co2       1 BMP      -0.5537
      4 O3P        41.9989   41.8878   42.2894 O.co2       1 BMP      -0.5537
      5 O5'        41.5591   42.0713   39.8451 O.3         1 BMP      -0.2734
      6 C5'        40.9761   40.7533   39.7208 C.3         1 BMP       0.1071
      7 C4'        41.6297   39.8952   38.6161 C.3         1 BMP       0.1181
      8 O4'        40.8769   38.6867   38.4709 O.3         1 BMP      -0.3367
      9 C3'        41.5943   40.5190   37.2133 C.3         1 BMP       0.1148
     10 O3'        42.6237   41.4861   37.0294 O.3         1 BMP      -0.3864
     11 C2'        41.7004   39.2768   36.2936 C.3         1 BMP       0.1383
     12 O2'        43.0086   39.0045   35.7903 O.3         1 BMP      -0.3837
     13 C1'        41.2149   38.1118   37.2044 C.3         1 BMP       0.2082
     14 N1         40.0801   37.3321   36.7149 N.am        1 BMP      -0.1249
     15 C2         38.9494   37.9361   36.2790 C.2         1 BMP       0.3330
     16 O2         38.7605   39.1469   36.3507 O.2         1 BMP      -0.3821
     17 N3         37.9664   37.2172   35.7390 N.am        1 BMP      -0.1915
     18 C4         38.0439   35.8877   35.6376 C.2         1 BMP       0.1636
     19 O4         37.1403   35.2837   35.0735 O.2         1 BMP      -0.4266
     20 C5         39.1088   35.2342   36.1596 C.2         1 BMP       0.0219
     21 C6         40.1086   35.9564   36.7122 C.2         1 BMP       0.2117
     22 O1         41.0552   35.2745   37.3456 O.3         1 BMP      -0.2890
     23 H1         39.9321   40.9115   39.4403 H           1 BMP       0.0639
     24 H2         40.9637   40.1936   40.6617 H           1 BMP       0.0639
     25 H3         42.6531   39.6590   38.8870 H           1 BMP       0.0650
     26 H4         40.6205   41.0093   37.0408 H           1 BMP       0.0648
     27 H5         42.2347   42.1560   36.4302 H           1 BMP       0.2100
     28 H6         41.0642   39.4126   35.4132 H           1 BMP       0.0675
     29 H7         43.6288   39.6474   36.2309 H           1 BMP       0.2101
     30 H8         42.0747   37.4720   37.3982 H           1 BMP       0.0991
     31 H9         37.1751   37.6794   35.3988 H           1 BMP       0.2246
     32 H10        39.1276   34.2426   36.1644 H           1 BMP       0.0051
     33 H11        40.6256   34.9041   38.1539 H           1 BMP       0.2637
@<TRIPOS>BOND
     1     1     5   1
     2     1     4  ar
     3     1     3  ar
     4     1     2  ar
     5     5     6   1
     6     6     7   1
     7     7     9   1
     8     7     8   1
     9     8    13   1
    10    13    14  am
    11    13    11   1
    12    11    12   1
    13    11     9   1
    14     9    10   1
    15    14    21   1
    16    14    15  am
    17    15    17  am
    18    15    16   2
    19    17    18  am
    20    18    20   1
    21    18    19   2
    22    20    21   2
    23    21    22   1
    24     6    23   1
    25     6    24   1
    26     7    25   1
    27     9    26   1
    28    10    27   1
    29    11    28   1
    30    12    29   1
    31    13    30   1
    32    17    31   1
    33    20    32   1
    34    22    33   1
@<TRIPOS>SUBSTRUCTURE
     1  BMP      6

