@<TRIPOS>MOLECULE
1lor_ligand_001
    33    34
SMALL
GAST_HUCK
****
This file was generated by PARSER (from files_GN.cpp)

@<TRIPOS>ATOM
      1 P          39.9300   32.4617   35.0111 P.3         1 BMP       0.2008
      2 O1P        41.3213   32.2795   34.6897 O.co2       1 BMP      -0.5537
      3 O2P        39.3070   33.3350   34.0509 O.co2       1 BMP      -0.5537
      4 O3P        39.2778   31.1886   34.8466 O.co2       1 BMP      -0.5537
      5 O5'        39.7076   32.8955   36.4914 O.3         1 BMP      -0.2734
      6 C5'        40.3050   34.1214   36.9621 C.3         1 BMP       0.1071
      7 C4'        39.3752   35.3468   36.7617 C.3         1 BMP       0.1181
      8 O4'        39.9427   36.4945   37.3997 O.3         1 BMP      -0.3367
      9 C3'        39.1722   35.8031   35.3006 C.3         1 BMP       0.1148
     10 O3'        37.9773   35.2446   34.7392 O.3         1 BMP      -0.3864
     11 C2'        39.1982   37.3437   35.3878 C.3         1 BMP       0.1383
     12 O2'        38.0967   37.9643   34.7267 O.3         1 BMP      -0.3837
     13 C1'        39.2707   37.6687   36.9056 C.3         1 BMP       0.2082
     14 N1         39.9549   38.8734   37.3748 N.am        1 BMP      -0.1249
     15 C2         40.0941   40.0000   36.6355 C.2         1 BMP       0.3330
     16 O2         39.5319   40.2128   35.5728 O.2         1 BMP      -0.3821
     17 N3         40.8459   41.0033   37.0745 N.am        1 BMP      -0.1915
     18 C4         41.4450   40.9629   38.2588 C.2         1 BMP       0.1636
     19 O4         42.1441   41.9052   38.6016 O.2         1 BMP      -0.4266
     20 C5         41.2184   39.9189   39.0968 C.2         1 BMP       0.0219
     21 C6         40.4545   38.9000   38.6613 C.2         1 BMP       0.2117
     22 O1         40.1656   37.9628   39.5609 O.3         1 BMP      -0.2890
     23 H1         41.2987   34.3227   36.5449 H           1 BMP       0.0639
     24 H2         40.4387   33.9889   38.0390 H           1 BMP       0.0639
     25 H3         38.4072   35.1279   37.2330 H           1 BMP       0.0650
     26 H4         40.0137   35.4789   34.6795 H           1 BMP       0.0648
     27 H5         37.2322   35.7171   35.1765 H           1 BMP       0.2100
     28 H6         40.1144   37.6867   34.8977 H           1 BMP       0.0675
     29 H7         37.3589   37.9948   35.3675 H           1 BMP       0.2101
     30 H8         38.2522   37.6907   37.3117 H           1 BMP       0.0991
     31 H9         40.9539   41.7910   36.5167 H           1 BMP       0.2246
     32 H10        41.5839   39.9289   40.0225 H           1 BMP       0.0051
     33 H11        40.3862   37.1117   39.1369 H           1 BMP       0.2637
@<TRIPOS>BOND
     1     1     5   1
     2     1     4  ar
     3     1     3  ar
     4     1     2  ar
     5     5     6   1
     6     6     7   1
     7     7     9   1
     8     7     8   1
     9     8    13   1
    10    13    14  am
    11    13    11   1
    12    11    12   1
    13    11     9   1
    14     9    10   1
    15    14    21   1
    16    14    15  am
    17    15    17  am
    18    15    16   2
    19    17    18  am
    20    18    20   1
    21    18    19   2
    22    20    21   2
    23    21    22   1
    24     6    23   1
    25     6    24   1
    26     7    25   1
    27     9    26   1
    28    10    27   1
    29    11    28   1
    30    12    29   1
    31    13    30   1
    32    17    31   1
    33    20    32   1
    34    22    33   1
@<TRIPOS>SUBSTRUCTURE
     1  BMP      6

