@<TRIPOS>MOLECULE
1lor_ligand_020
    33    34
SMALL
GAST_HUCK
****
This file was generated by PARSER (from files_GN.cpp)

@<TRIPOS>ATOM
      1 P          39.8169   35.5593   38.1630 P.3         1 BMP       0.2008
      2 O1P        38.8533   34.6940   38.8118 O.co2       1 BMP      -0.5537
      3 O2P        40.0595   36.6560   39.0678 O.co2       1 BMP      -0.5537
      4 O3P        41.0173   34.7756   37.9843 O.co2       1 BMP      -0.5537
      5 O5'        39.1798   35.9830   36.8060 O.3         1 BMP      -0.2734
      6 C5'        39.7484   37.0960   36.0819 C.3         1 BMP       0.1071
      7 C4'        39.4057   38.4598   36.7369 C.3         1 BMP       0.1181
      8 O4'        40.5135   38.9018   37.5230 O.3         1 BMP      -0.3367
      9 C3'        39.1371   39.6586   35.8041 C.3         1 BMP       0.1148
     10 O3'        37.8322   39.6192   35.2093 O.3         1 BMP      -0.3864
     11 C2'        39.3331   40.8560   36.7611 C.3         1 BMP       0.1383
     12 O2'        38.0850   41.3059   37.2926 O.3         1 BMP      -0.3837
     13 C1'        40.2407   40.2646   37.8849 C.3         1 BMP       0.2082
     14 N1         41.5053   40.9451   38.1483 N.am        1 BMP      -0.1249
     15 C2         42.3973   41.1761   37.1568 C.2         1 BMP       0.3330
     16 O2         42.2371   40.8117   36.0008 O.2         1 BMP      -0.3821
     17 N3         43.5336   41.8260   37.4089 N.am        1 BMP      -0.1915
     18 C4         43.8409   42.2417   38.6343 C.2         1 BMP       0.1636
     19 O4         44.8989   42.8283   38.8125 O.2         1 BMP      -0.4266
     20 C5         43.0079   41.9739   39.6737 C.2         1 BMP       0.0219
     21 C6         41.8544   41.3221   39.4269 C.2         1 BMP       0.2117
     22 O1         41.1211   41.0114   40.4932 O.3         1 BMP      -0.2890
     23 H1         39.2898   37.0582   35.0920 H           1 BMP       0.0639
     24 H2         40.8301   36.9840   35.9376 H           1 BMP       0.0639
     25 H3         38.5279   38.3248   37.3755 H           1 BMP       0.0650
     26 H4         39.8816   39.6998   35.0003 H           1 BMP       0.0648
     27 H5         37.8068   38.7786   34.6959 H           1 BMP       0.2100
     28 H6         39.7958   41.6941   36.2442 H           1 BMP       0.0675
     29 H7         38.3235   41.9925   37.9491 H           1 BMP       0.2101
     30 H8         39.6331   40.1982   38.7966 H           1 BMP       0.0991
     31 H9         44.1535   42.0043   36.6803 H           1 BMP       0.2246
     32 H10        43.2700   42.2156   40.6042 H           1 BMP       0.0051
     33 H11        41.1766   40.0326   40.5563 H           1 BMP       0.2637
@<TRIPOS>BOND
     1     1     5   1
     2     1     4  ar
     3     1     3  ar
     4     1     2  ar
     5     5     6   1
     6     6     7   1
     7     7     9   1
     8     7     8   1
     9     8    13   1
    10    13    14  am
    11    13    11   1
    12    11    12   1
    13    11     9   1
    14     9    10   1
    15    14    21   1
    16    14    15  am
    17    15    17  am
    18    15    16   2
    19    17    18  am
    20    18    20   1
    21    18    19   2
    22    20    21   2
    23    21    22   1
    24     6    23   1
    25     6    24   1
    26     7    25   1
    27     9    26   1
    28    10    27   1
    29    11    28   1
    30    12    29   1
    31    13    30   1
    32    17    31   1
    33    20    32   1
    34    22    33   1
@<TRIPOS>SUBSTRUCTURE
     1  BMP      6

