@<TRIPOS>MOLECULE
1lor_ligand_014
    33    34
SMALL
GAST_HUCK
****
This file was generated by PARSER (from files_GN.cpp)

@<TRIPOS>ATOM
      1 P          39.6943   32.4668   34.8717 P.3         1 BMP       0.2008
      2 O1P        39.0750   31.2115   34.4559 O.co2       1 BMP      -0.5537
      3 O2P        39.5778   32.4461   36.3410 O.co2       1 BMP      -0.5537
      4 O3P        41.1049   32.4101   34.6383 O.co2       1 BMP      -0.5537
      5 O5'        39.1096   33.7581   34.2534 O.3         1 BMP      -0.2734
      6 C5'        38.8547   34.9751   35.0159 C.3         1 BMP       0.1071
      7 C4'        39.8669   35.4176   36.1202 C.3         1 BMP       0.1181
      8 O4'        40.2812   36.7933   35.9899 O.3         1 BMP      -0.3367
      9 C3'        39.3363   35.3927   37.5726 C.3         1 BMP       0.1148
     10 O3'        39.1881   34.0982   38.1504 O.3         1 BMP      -0.3864
     11 C2'        40.3525   36.2673   38.3251 C.3         1 BMP       0.1383
     12 O2'        41.3014   35.4687   39.0353 O.3         1 BMP      -0.3837
     13 C1'        41.0403   37.0662   37.1818 C.3         1 BMP       0.2082
     14 N1         41.2501   38.4841   37.4760 N.am        1 BMP      -0.1249
     15 C2         42.5036   38.9950   37.5441 C.2         1 BMP       0.3330
     16 O2         43.5160   38.3596   37.2842 O.2         1 BMP      -0.3821
     17 N3         42.7134   40.2346   37.9716 N.am        1 BMP      -0.1915
     18 C4         41.7125   41.0208   38.3342 C.2         1 BMP       0.1636
     19 O4         41.9717   42.1417   38.7417 O.2         1 BMP      -0.4266
     20 C5         40.4252   40.5740   38.2469 C.2         1 BMP       0.0219
     21 C6         40.2009   39.3221   37.7889 C.2         1 BMP       0.2117
     22 O1         38.9195   38.9547   37.7045 O.3         1 BMP      -0.2890
     23 H1         37.8434   34.9118   35.4276 H           1 BMP       0.0639
     24 H2         38.8298   35.7674   34.2651 H           1 BMP       0.0639
     25 H3         40.7634   34.7916   36.0354 H           1 BMP       0.0650
     26 H4         38.3567   35.8810   37.6036 H           1 BMP       0.0648
     27 H5         40.0328   33.6331   37.9821 H           1 BMP       0.2100
     28 H6         39.8442   36.9180   39.0410 H           1 BMP       0.0675
     29 H7         40.7989   35.0584   39.7725 H           1 BMP       0.2101
     30 H8         42.0000   36.5709   36.9970 H           1 BMP       0.0991
     31 H9         43.6263   40.5698   38.0329 H           1 BMP       0.2246
     32 H10        39.6722   41.1675   38.5061 H           1 BMP       0.0051
     33 H11        38.8854   38.2083   37.0730 H           1 BMP       0.2637
@<TRIPOS>BOND
     1     1     5   1
     2     1     4  ar
     3     1     3  ar
     4     1     2  ar
     5     5     6   1
     6     6     7   1
     7     7     9   1
     8     7     8   1
     9     8    13   1
    10    13    14  am
    11    13    11   1
    12    11    12   1
    13    11     9   1
    14     9    10   1
    15    14    21   1
    16    14    15  am
    17    15    17  am
    18    15    16   2
    19    17    18  am
    20    18    20   1
    21    18    19   2
    22    20    21   2
    23    21    22   1
    24     6    23   1
    25     6    24   1
    26     7    25   1
    27     9    26   1
    28    10    27   1
    29    11    28   1
    30    12    29   1
    31    13    30   1
    32    17    31   1
    33    20    32   1
    34    22    33   1
@<TRIPOS>SUBSTRUCTURE
     1  BMP      6

