@<TRIPOS>MOLECULE
1n1m_ligand_013
    31    31
SMALL
GAST_HUCK
****
This file was generated by PARSER (from files_GN.cpp)

@<TRIPOS>ATOM
      1 C1         83.4976   68.0147   98.2405 C.3         1 A3M      -0.0307
      2 C2         83.2112   67.7637   99.7335 C.3         1 A3M       0.0341
      3 N3         83.7101   66.4503  100.0192 N.am        1 A3M      -0.2686
      4 C4         84.0582   65.7562   98.8037 C.3         1 A3M       0.0341
      5 C5         83.4786   66.6014   97.6526 C.3         1 A3M      -0.0307
      6 C14        83.8386   65.8878  101.2398 C.2         1 A3M       0.2272
      7 C15        83.5862   66.5089  102.5562 C.3         1 A3M       0.0674
      8 C16        82.1007   66.9217  102.8494 C.3         1 A3M       0.0139
      9 C17        81.1689   65.6857  102.9840 C.3         1 A3M      -0.0553
     10 O18        84.2454   64.7327  101.2871 O.2         1 A3M      -0.3907
     11 N19        84.5395   67.6139  102.7504 N.4         1 A3M       0.2381
     12 C26        81.9653   67.8279  104.1056 C.3         1 A3M      -0.0553
     13 H1         84.4946   68.4477   98.1092 H           1 A3M       0.0285
     14 H2         82.7550   68.6618   97.7666 H           1 A3M       0.0285
     15 H3         82.1332   67.7945   99.8979 H           1 A3M       0.0522
     16 H4         83.6947   68.5430  100.3197 H           1 A3M       0.0522
     17 H5         83.6395   64.7517   98.7676 H           1 A3M       0.0522
     18 H6         85.1484   65.6907   98.7246 H           1 A3M       0.0522
     19 H7         84.0787   66.5225   96.7397 H           1 A3M       0.0285
     20 H8         82.4490   66.3005   97.4370 H           1 A3M       0.0285
     21 H9         83.8572   65.7899  103.3417 H           1 A3M       0.1101
     22 H10        81.7307   67.5135  102.0133 H           1 A3M       0.0376
     23 H11        80.1349   65.9988  103.1552 H           1 A3M       0.0236
     24 H12        81.4763   65.0480  103.8186 H           1 A3M       0.0236
     25 H13        81.1814   65.0891  102.0708 H           1 A3M       0.0236
     26 H14        85.4754   67.3222  102.4566 H           1 A3M       0.2015
     27 H15        84.5663   67.8633  103.7382 H           1 A3M       0.2015
     28 H16        84.2583   68.4331  102.2165 H           1 A3M       0.2015
     29 H17        82.5069   68.7656  103.9641 H           1 A3M       0.0236
     30 H18        82.3576   67.3289  104.9980 H           1 A3M       0.0236
     31 H19        80.9166   68.0862  104.2844 H           1 A3M       0.0236
@<TRIPOS>BOND
     1     1     2   1
     2     1     5   1
     3     2     3   1
     4     3     4   1
     5     3     6  am
     6     4     5   1
     7     6     7   1
     8     6    10   2
     9     7     8   1
    10     7    11   1
    11     8     9   1
    12     8    12   1
    13     1    13   1
    14     1    14   1
    15     2    15   1
    16     2    16   1
    17     4    17   1
    18     4    18   1
    19     5    19   1
    20     5    20   1
    21     7    21   1
    22     8    22   1
    23     9    23   1
    24     9    24   1
    25     9    25   1
    26    11    26   1
    27    11    27   1
    28    11    28   1
    29    12    29   1
    30    12    30   1
    31    12    31   1
@<TRIPOS>SUBSTRUCTURE
     1  A3M      1

