@<TRIPOS>MOLECULE
1n1m_ligand_003
    31    31
SMALL
GAST_HUCK
****
This file was generated by PARSER (from files_GN.cpp)

@<TRIPOS>ATOM
      1 C1         81.4391   75.1012  101.5813 C.3         1 A3M      -0.0307
      2 C2         81.6456   75.7547  100.2043 C.3         1 A3M       0.0341
      3 N3         80.9458   74.9232   99.2551 N.am        1 A3M      -0.2686
      4 C4         80.4850   73.6996   99.8532 C.3         1 A3M       0.0341
      5 C5         81.1739   73.6316  101.2311 C.3         1 A3M      -0.0307
      6 C14        80.7829   75.2861   97.9703 C.2         1 A3M       0.2272
      7 C15        80.0780   74.5495   96.9048 C.3         1 A3M       0.0674
      8 C16        78.5114   74.3700   97.0187 C.3         1 A3M       0.0139
      9 C17        78.0141   72.9125   97.2765 C.3         1 A3M      -0.0553
     10 O18        81.2872   76.3532   97.6234 O.2         1 A3M      -0.3907
     11 N19        80.7885   73.3073   96.5548 N.4         1 A3M       0.2381
     12 C26        77.8098   75.3709   97.9913 C.3         1 A3M      -0.0553
     13 H1         80.5608   75.5270  102.0814 H           1 A3M       0.0285
     14 H2         82.3151   75.2110  102.2327 H           1 A3M       0.0285
     15 H3         82.7138   75.7902   99.9596 H           1 A3M       0.0522
     16 H4         81.2435   76.7704  100.2315 H           1 A3M       0.0522
     17 H5         80.7695   72.8188   99.2676 H           1 A3M       0.0522
     18 H6         79.3989   73.7344   99.9902 H           1 A3M       0.0522
     19 H7         80.5453   73.1349  101.9823 H           1 A3M       0.0285
     20 H8         82.1294   73.0904  101.1454 H           1 A3M       0.0285
     21 H9         80.2076   75.1348   95.9860 H           1 A3M       0.1101
     22 H10        78.0982   74.6079   96.0271 H           1 A3M       0.0376
     23 H11        76.9187   72.8728   97.2975 H           1 A3M       0.0236
     24 H12        78.3880   72.5194   98.2217 H           1 A3M       0.0236
     25 H13        78.3480   72.2490   96.4701 H           1 A3M       0.0236
     26 H14        81.7960   73.4704   96.5516 H           1 A3M       0.2015
     27 H15        80.5014   73.0423   95.6120 H           1 A3M       0.2015
     28 H16        80.5581   72.5494   97.1941 H           1 A3M       0.2015
     29 H17        78.2035   76.3848   97.8457 H           1 A3M       0.0236
     30 H18        77.9798   75.0715   99.0359 H           1 A3M       0.0236
     31 H19        76.7263   75.3928   97.7956 H           1 A3M       0.0236
@<TRIPOS>BOND
     1     1     2   1
     2     1     5   1
     3     2     3   1
     4     3     4   1
     5     3     6  am
     6     4     5   1
     7     6     7   1
     8     6    10   2
     9     7     8   1
    10     7    11   1
    11     8     9   1
    12     8    12   1
    13     1    13   1
    14     1    14   1
    15     2    15   1
    16     2    16   1
    17     4    17   1
    18     4    18   1
    19     5    19   1
    20     5    20   1
    21     7    21   1
    22     8    22   1
    23     9    23   1
    24     9    24   1
    25     9    25   1
    26    11    26   1
    27    11    27   1
    28    11    28   1
    29    12    29   1
    30    12    30   1
    31    12    31   1
@<TRIPOS>SUBSTRUCTURE
     1  A3M      1

