@<TRIPOS>MOLECULE
1n1m_ligand_017
    31    31
SMALL
GAST_HUCK
****
This file was generated by PARSER (from files_GN.cpp)

@<TRIPOS>ATOM
      1 C1         78.3346   76.8213   98.7721 C.3         1 A3M      -0.0307
      2 C2         77.4988   76.0283   97.7525 C.3         1 A3M       0.0341
      3 N3         78.0271   74.6955   97.7554 N.am        1 A3M      -0.2686
      4 C4         79.2356   74.5983   98.5238 C.3         1 A3M       0.0341
      5 C5         79.6518   76.0443   98.8429 C.3         1 A3M      -0.0307
      6 C14        77.4555   73.6348   97.1570 C.2         1 A3M       0.2272
      7 C15        76.2309   73.6484   96.3474 C.3         1 A3M       0.0674
      8 C16        74.9470   73.1344   97.0939 C.3         1 A3M       0.0139
      9 C17        74.9475   71.6109   97.4254 C.3         1 A3M      -0.0553
     10 O18        77.9718   72.5326   97.3249 O.2         1 A3M      -0.3907
     11 N19        76.4659   72.9056   95.0851 N.4         1 A3M       0.2381
     12 C26        74.6115   73.9587   98.3715 C.3         1 A3M      -0.0553
     13 H1         77.8419   76.8088   99.7534 H           1 A3M       0.0285
     14 H2         78.4841   77.8554   98.4564 H           1 A3M       0.0285
     15 H3         77.5758   76.4617   96.7519 H           1 A3M       0.0522
     16 H4         76.4555   76.0480   98.0775 H           1 A3M       0.0522
     17 H5         80.0283   74.0976   97.9570 H           1 A3M       0.0522
     18 H6         79.0404   74.0412   99.4459 H           1 A3M       0.0522
     19 H7         80.1179   76.1225   99.8278 H           1 A3M       0.0285
     20 H8         80.3397   76.4171   98.0789 H           1 A3M       0.0285
     21 H9         76.0188   74.6703   96.0195 H           1 A3M       0.1101
     22 H10        74.1059   73.3014   96.4155 H           1 A3M       0.0376
     23 H11        73.9983   71.3196   97.8829 H           1 A3M       0.0236
     24 H12        75.7475   71.3640   98.1258 H           1 A3M       0.0236
     25 H13        75.0744   71.0162   96.5194 H           1 A3M       0.0236
     26 H14        77.2959   73.2830   94.6291 H           1 A3M       0.2015
     27 H15        75.6714   72.9840   94.4460 H           1 A3M       0.2015
     28 H16        76.6283   71.9164   95.2856 H           1 A3M       0.2015
     29 H17        74.4374   75.0032   98.1080 H           1 A3M       0.0236
     30 H18        75.4287   73.8962   99.0905 H           1 A3M       0.0236
     31 H19        73.7059   73.5848   98.8505 H           1 A3M       0.0236
@<TRIPOS>BOND
     1     1     2   1
     2     1     5   1
     3     2     3   1
     4     3     4   1
     5     3     6  am
     6     4     5   1
     7     6     7   1
     8     6    10   2
     9     7     8   1
    10     7    11   1
    11     8     9   1
    12     8    12   1
    13     1    13   1
    14     1    14   1
    15     2    15   1
    16     2    16   1
    17     4    17   1
    18     4    18   1
    19     5    19   1
    20     5    20   1
    21     7    21   1
    22     8    22   1
    23     9    23   1
    24     9    24   1
    25     9    25   1
    26    11    26   1
    27    11    27   1
    28    11    28   1
    29    12    29   1
    30    12    30   1
    31    12    31   1
@<TRIPOS>SUBSTRUCTURE
     1  A3M      1

