@<TRIPOS>MOLECULE
1n1m_ligand_001
    31    31
SMALL
GAST_HUCK
****
This file was generated by PARSER (from files_GN.cpp)

@<TRIPOS>ATOM
      1 C1         76.0429   74.4042   95.8887 C.3         1 A3M      -0.0307
      2 C2         77.5019   74.6104   96.3359 C.3         1 A3M       0.0341
      3 N3         77.6756   73.7995   97.5077 N.am        1 A3M      -0.2686
      4 C4         76.4071   73.3121   97.9890 C.3         1 A3M       0.0341
      5 C5         75.3257   74.0659   97.1961 C.3         1 A3M      -0.0307
      6 C14        78.8425   73.4984   98.1170 C.2         1 A3M       0.2272
      7 C15        80.2106   73.8484   97.6889 C.3         1 A3M       0.0674
      8 C16        80.5247   75.3858   97.6721 C.3         1 A3M       0.0139
      9 C17        80.7563   75.9288   99.1119 C.3         1 A3M      -0.0553
     10 O18        78.7865   72.8072   99.1354 O.2         1 A3M      -0.3907
     11 N19        80.5209   73.1468   96.4281 N.4         1 A3M       0.2381
     12 C26        81.7262   75.7711   96.7629 C.3         1 A3M      -0.0553
     13 H1         75.9747   73.5596   95.1934 H           1 A3M       0.0285
     14 H2         75.6269   75.2967   95.4121 H           1 A3M       0.0285
     15 H3         77.6466   75.6662   96.5806 H           1 A3M       0.0522
     16 H4         78.1666   74.3295   95.5182 H           1 A3M       0.0522
     17 H5         76.2727   73.5031   99.0542 H           1 A3M       0.0522
     18 H6         76.3335   72.2371   97.8014 H           1 A3M       0.0522
     19 H7         74.4362   73.4526   97.0317 H           1 A3M       0.0285
     20 H8         75.0393   74.9847   97.7182 H           1 A3M       0.0285
     21 H9         80.9267   73.4034   98.3896 H           1 A3M       0.1101
     22 H10        79.6672   75.9223   97.2684 H           1 A3M       0.0376
     23 H11        80.9003   77.0106   99.0927 H           1 A3M       0.0236
     24 H12        81.6375   75.4671   99.5587 H           1 A3M       0.0236
     25 H13        79.8936   75.7200   99.7470 H           1 A3M       0.0236
     26 H14        80.2847   72.1580   96.5322 H           1 A3M       0.2015
     27 H15        81.5217   73.2188   96.2266 H           1 A3M       0.2015
     28 H16        79.9948   73.5300   95.6438 H           1 A3M       0.2015
     29 H17        81.5232   75.5024   95.7240 H           1 A3M       0.0236
     30 H18        82.6390   75.2688   97.0839 H           1 A3M       0.0236
     31 H19        81.8895   76.8516   96.7911 H           1 A3M       0.0236
@<TRIPOS>BOND
     1     1     2   1
     2     1     5   1
     3     2     3   1
     4     3     4   1
     5     3     6  am
     6     4     5   1
     7     6     7   1
     8     6    10   2
     9     7     8   1
    10     7    11   1
    11     8     9   1
    12     8    12   1
    13     1    13   1
    14     1    14   1
    15     2    15   1
    16     2    16   1
    17     4    17   1
    18     4    18   1
    19     5    19   1
    20     5    20   1
    21     7    21   1
    22     8    22   1
    23     9    23   1
    24     9    24   1
    25     9    25   1
    26    11    26   1
    27    11    27   1
    28    11    28   1
    29    12    29   1
    30    12    30   1
    31    12    31   1
@<TRIPOS>SUBSTRUCTURE
     1  A3M      1

