@<TRIPOS>MOLECULE
1n1m_ligand_007
    31    31
SMALL
GAST_HUCK
****
This file was generated by PARSER (from files_GN.cpp)

@<TRIPOS>ATOM
      1 C1         75.8727   72.4630   96.0283 C.3         1 A3M      -0.0307
      2 C2         77.3664   72.6011   96.3483 C.3         1 A3M       0.0341
      3 N3         77.5586   73.9428   96.8088 N.am        1 A3M      -0.2686
      4 C4         76.3751   74.7421   96.6494 C.3         1 A3M       0.0341
      5 C5         75.4081   73.9063   95.7991 C.3         1 A3M      -0.0307
      6 C14        78.7086   74.4414   97.2922 C.2         1 A3M       0.2272
      7 C15        79.9791   73.7032   97.4294 C.3         1 A3M       0.0674
      8 C16        80.7077   73.8075   98.8216 C.3         1 A3M       0.0139
      9 C17        81.3688   75.1838   99.1263 C.3         1 A3M      -0.0553
     10 O18        78.7548   75.6360   97.5495 O.2         1 A3M      -0.3907
     11 N19        80.8594   74.0912   96.3132 N.4         1 A3M       0.2381
     12 C26        79.7955   73.3677  100.0021 C.3         1 A3M      -0.0553
     13 H1         75.3447   72.0379   96.8840 H           1 A3M       0.0285
     14 H2         75.7003   71.8339   95.1516 H           1 A3M       0.0285
     15 H3         77.9606   72.4205   95.4533 H           1 A3M       0.0522
     16 H4         77.6366   71.8672   97.1065 H           1 A3M       0.0522
     17 H5         76.5763   75.6874   96.1373 H           1 A3M       0.0522
     18 H6         75.9426   74.9481   97.6304 H           1 A3M       0.0522
     19 H7         74.3673   74.0590   96.0944 H           1 A3M       0.0285
     20 H8         75.5130   74.1597   94.7411 H           1 A3M       0.0285
     21 H9         79.8007   72.6405   97.2763 H           1 A3M       0.1101
     22 H10        81.5276   73.0834   98.7883 H           1 A3M       0.0376
     23 H11        81.9028   75.1437  100.0748 H           1 A3M       0.0236
     24 H12        80.6296   75.9768   99.1986 H           1 A3M       0.0236
     25 H13        82.0922   75.4450   98.3483 H           1 A3M       0.0236
     26 H14        80.4435   73.8302   95.4209 H           1 A3M       0.2015
     27 H15        81.7503   73.6044   96.3795 H           1 A3M       0.2015
     28 H16        81.0384   75.0995   96.3430 H           1 A3M       0.2015
     29 H17        79.3701   72.3833   99.8108 H           1 A3M       0.0236
     30 H18        78.9781   74.0804  100.1436 H           1 A3M       0.0236
     31 H19        80.3690   73.3122  100.9257 H           1 A3M       0.0236
@<TRIPOS>BOND
     1     1     2   1
     2     1     5   1
     3     2     3   1
     4     3     4   1
     5     3     6  am
     6     4     5   1
     7     6     7   1
     8     6    10   2
     9     7     8   1
    10     7    11   1
    11     8     9   1
    12     8    12   1
    13     1    13   1
    14     1    14   1
    15     2    15   1
    16     2    16   1
    17     4    17   1
    18     4    18   1
    19     5    19   1
    20     5    20   1
    21     7    21   1
    22     8    22   1
    23     9    23   1
    24     9    24   1
    25     9    25   1
    26    11    26   1
    27    11    27   1
    28    11    28   1
    29    12    29   1
    30    12    30   1
    31    12    31   1
@<TRIPOS>SUBSTRUCTURE
     1  A3M      1

