@<TRIPOS>MOLECULE
1n1m_ligand_011
    31    31
SMALL
GAST_HUCK
****
This file was generated by PARSER (from files_GN.cpp)

@<TRIPOS>ATOM
      1 C1         83.0427   64.7225  105.4325 C.3         1 A3M      -0.0307
      2 C2         82.6393   64.5235  103.9614 C.3         1 A3M       0.0341
      3 N3         83.5985   65.2553  103.1805 N.am        1 A3M      -0.2686
      4 C4         84.4397   66.0782  103.9998 C.3         1 A3M       0.0341
      5 C5         83.8369   66.0324  105.4149 C.3         1 A3M      -0.0307
      6 C14        83.6732   65.1561  101.8419 C.2         1 A3M       0.2272
      7 C15        84.6239   65.8588  100.9674 C.3         1 A3M       0.0674
      8 C16        83.9252   66.8681   99.9866 C.3         1 A3M       0.0139
      9 C17        83.1237   67.9659  100.7438 C.3         1 A3M      -0.0553
     10 O18        82.8674   64.4335  101.2636 O.2         1 A3M      -0.3907
     11 N19        85.3998   64.8389  100.2334 N.4         1 A3M       0.2381
     12 C26        84.9275   67.5505   99.0115 C.3         1 A3M      -0.0553
     13 H1         83.6858   63.9014  105.7626 H           1 A3M       0.0285
     14 H2         82.1723   64.7841  106.0913 H           1 A3M       0.0285
     15 H3         81.6359   64.9199  103.7817 H           1 A3M       0.0522
     16 H4         82.6529   63.4558  103.7210 H           1 A3M       0.0522
     17 H5         84.4645   67.1138  103.6523 H           1 A3M       0.0522
     18 H6         85.4530   65.6705  104.0086 H           1 A3M       0.0522
     19 H7         84.6086   66.0513  106.1898 H           1 A3M       0.0285
     20 H8         83.1591   66.8793  105.5635 H           1 A3M       0.0285
     21 H9         85.3565   66.4153  101.5533 H           1 A3M       0.1101
     22 H10        83.2101   66.3111   99.3697 H           1 A3M       0.0376
     23 H11        82.6442   68.6402  100.0323 H           1 A3M       0.0236
     24 H12        83.7827   68.5518  101.3877 H           1 A3M       0.0236
     25 H13        82.3382   67.5217  101.3581 H           1 A3M       0.0236
     26 H14        85.8500   64.2036  100.8963 H           1 A3M       0.2015
     27 H15        86.1236   65.2852   99.6688 H           1 A3M       0.2015
     28 H16        84.7789   64.3049   99.6196 H           1 A3M       0.2015
     29 H17        85.4075   66.8104   98.3716 H           1 A3M       0.0236
     30 H18        85.7006   68.0902   99.5642 H           1 A3M       0.0236
     31 H19        84.4096   68.2561   98.3596 H           1 A3M       0.0236
@<TRIPOS>BOND
     1     1     2   1
     2     1     5   1
     3     2     3   1
     4     3     4   1
     5     3     6  am
     6     4     5   1
     7     6     7   1
     8     6    10   2
     9     7     8   1
    10     7    11   1
    11     8     9   1
    12     8    12   1
    13     1    13   1
    14     1    14   1
    15     2    15   1
    16     2    16   1
    17     4    17   1
    18     4    18   1
    19     5    19   1
    20     5    20   1
    21     7    21   1
    22     8    22   1
    23     9    23   1
    24     9    24   1
    25     9    25   1
    26    11    26   1
    27    11    27   1
    28    11    28   1
    29    12    29   1
    30    12    30   1
    31    12    31   1
@<TRIPOS>SUBSTRUCTURE
     1  A3M      1

