@<TRIPOS>MOLECULE
1n1m_ligand_018
    31    31
SMALL
GAST_HUCK
****
This file was generated by PARSER (from files_GN.cpp)

@<TRIPOS>ATOM
      1 C1         81.9030   74.1909   99.5417 C.3         1 A3M      -0.0307
      2 C2         80.5145   73.6176   99.2089 C.3         1 A3M       0.0341
      3 N3         79.8416   74.6145   98.4257 N.am        1 A3M      -0.2686
      4 C4         80.5684   75.8552   98.4230 C.3         1 A3M       0.0341
      5 C5         81.6917   75.7045   99.4632 C.3         1 A3M      -0.0307
      6 C14        78.6797   74.4642   97.7668 C.2         1 A3M       0.2272
      7 C15        77.8955   73.2266   97.6147 C.3         1 A3M       0.0674
      8 C16        77.6726   72.3641   98.9137 C.3         1 A3M       0.0139
      9 C17        77.1148   73.2073  100.1046 C.3         1 A3M      -0.0553
     10 O18        78.1992   75.4477   97.2107 O.2         1 A3M      -0.3907
     11 N19        78.4771   72.4346   96.5139 N.4         1 A3M       0.2381
     12 C26        76.7359   71.1439   98.6545 C.3         1 A3M      -0.0553
     13 H1         82.6343   73.8670   98.7949 H           1 A3M       0.0285
     14 H2         82.2416   73.8811  100.5368 H           1 A3M       0.0285
     15 H3         79.9637   73.4397  100.1353 H           1 A3M       0.0522
     16 H4         80.6424   72.6751   98.6730 H           1 A3M       0.0522
     17 H5         79.9362   76.7085   98.6993 H           1 A3M       0.0522
     18 H6         80.9952   76.0331   97.4274 H           1 A3M       0.0522
     19 H7         82.6083   76.2264   99.1620 H           1 A3M       0.0285
     20 H8         81.3628   76.0853  100.4352 H           1 A3M       0.0285
     21 H9         76.8887   73.4878   97.2596 H           1 A3M       0.1101
     22 H10        78.6353   71.9447   99.2242 H           1 A3M       0.0376
     23 H11        76.9669   72.5724  100.9821 H           1 A3M       0.0236
     24 H12        76.1599   73.6666   99.8330 H           1 A3M       0.0236
     25 H13        77.8189   73.9957  100.3787 H           1 A3M       0.0236
     26 H14        78.5242   73.0081   95.6675 H           1 A3M       0.2015
     27 H15        77.9050   71.6136   96.3140 H           1 A3M       0.2015
     28 H16        79.4172   72.1186   96.7527 H           1 A3M       0.2015
     29 H17        77.1276   70.5200   97.8445 H           1 A3M       0.0236
     30 H18        75.7332   71.4854   98.3836 H           1 A3M       0.0236
     31 H19        76.6654   70.5238   99.5500 H           1 A3M       0.0236
@<TRIPOS>BOND
     1     1     2   1
     2     1     5   1
     3     2     3   1
     4     3     4   1
     5     3     6  am
     6     4     5   1
     7     6     7   1
     8     6    10   2
     9     7     8   1
    10     7    11   1
    11     8     9   1
    12     8    12   1
    13     1    13   1
    14     1    14   1
    15     2    15   1
    16     2    16   1
    17     4    17   1
    18     4    18   1
    19     5    19   1
    20     5    20   1
    21     7    21   1
    22     8    22   1
    23     9    23   1
    24     9    24   1
    25     9    25   1
    26    11    26   1
    27    11    27   1
    28    11    28   1
    29    12    29   1
    30    12    30   1
    31    12    31   1
@<TRIPOS>SUBSTRUCTURE
     1  A3M      1

