@<TRIPOS>MOLECULE
1n2v_ligand_003
    27    28
SMALL
GAST_HUCK
****
This file was generated by PARSER (from files_GN.cpp)

@<TRIPOS>ATOM
      1 N1         13.0561   15.6857   20.5323 N.pl3       1 BDI      -0.2398
      2 C1         14.2443   15.3943   19.9660 C.2         1 BDI       0.1238
      3 C6         14.4334   14.7166   18.6703 C.3         1 BDI       0.0274
      4 C7         14.9654   15.6378   17.5373 C.3         1 BDI      -0.0366
      5 C8         14.0166   16.7992   17.1230 C.3         1 BDI      -0.0535
      6 C9         14.3124   18.1482   17.8191 C.3         1 BDI      -0.0651
      7 N2         15.2458   15.7486   20.7973 N.2         1 BDI      -0.3056
      8 C2         14.6749   16.2686   21.8976 C.2         1 BDI       0.1055
      9 C4         15.2094   16.7555   23.0778 C.2         1 BDI       0.2188
     10 N5         14.3592   17.1735   24.0201 N.am        1 BDI      -0.1851
     11 N4         13.0358   17.1567   23.8491 N.am        1 BDI      -0.1821
     12 C5         12.4627   16.6959   22.7378 C.2         1 BDI       0.2476
     13 O1         11.2465   16.6762   22.6199 O.2         1 BDI      -0.3849
     14 C3         13.2922   16.2305   21.7302 C.2         1 BDI       0.1656
     15 O3         16.4148   16.7741   23.2789 O.2         1 BDI      -0.3913
     16 H1         12.1799   15.5227   20.1439 H           1 BDI       0.2418
     17 H2         13.4799   14.2801   18.3552 H           1 BDI       0.0512
     18 H3         15.1337   13.8868   18.8115 H           1 BDI       0.0512
     19 H4         15.1224   14.9974   16.6640 H           1 BDI       0.0294
     20 H5         15.9468   16.0296   17.8167 H           1 BDI       0.0294
     21 H6         12.9771   16.5197   17.3105 H           1 BDI       0.0264
     22 H7         14.1126   16.9579   16.0466 H           1 BDI       0.0264
     23 H8         13.5910   18.8956   17.4829 H           1 BDI       0.0230
     24 H9         15.3148   18.4943   17.5633 H           1 BDI       0.0230
     25 H10        14.2349   18.0529   18.9004 H           1 BDI       0.0230
     26 H11        14.7139   17.4970   24.8664 H           1 BDI       0.2151
     27 H12        12.4709   17.4850   24.5651 H           1 BDI       0.2153
@<TRIPOS>BOND
     1     1     2   1
     2     1    14   1
     3     2     3   1
     4     2     7   2
     5     3     4   1
     6     4     5   1
     7     5     6   1
     8     7     8   1
     9     8     9   1
    10     8    14   2
    11     9    10  am
    12     9    15   2
    13    10    11   1
    14    11    12  am
    15    12    13   2
    16    12    14   1
    17     1    16   1
    18     3    17   1
    19     3    18   1
    20     4    19   1
    21     4    20   1
    22     5    21   1
    23     5    22   1
    24     6    23   1
    25     6    24   1
    26     6    25   1
    27    10    26   1
    28    11    27   1
@<TRIPOS>SUBSTRUCTURE
     1  BDI      2

