@<TRIPOS>MOLECULE
1n2v_ligand_002
    27    28
SMALL
GAST_HUCK
****
This file was generated by PARSER (from files_GN.cpp)

@<TRIPOS>ATOM
      1 N1         13.7035   16.4809   21.1708 N.pl3       1 BDI      -0.2398
      2 C1         14.5506   16.9475   20.2306 C.2         1 BDI       0.1238
      3 C6         14.3751   16.8630   18.7682 C.3         1 BDI       0.0274
      4 C7         13.5992   15.6241   18.2480 C.3         1 BDI      -0.0366
      5 C8         14.0326   14.2055   18.7230 C.3         1 BDI      -0.0535
      6 C9         15.4788   14.0467   19.2494 C.3         1 BDI      -0.0651
      7 N2         15.6885   17.3745   20.8165 N.2         1 BDI      -0.3056
      8 C2         15.5574   17.1670   22.1369 C.2         1 BDI       0.1055
      9 C4         16.4273   17.3586   23.1940 C.2         1 BDI       0.2188
     10 N5         16.0179   16.9859   24.4076 N.am        1 BDI      -0.1851
     11 N4         14.8220   16.4395   24.6234 N.am        1 BDI      -0.1821
     12 C5         13.9425   16.2187   23.6436 C.2         1 BDI       0.2476
     13 O1         12.8635   15.7006   23.8818 O.2         1 BDI      -0.3849
     14 C3         14.3081   16.5898   22.3620 C.2         1 BDI       0.1656
     15 O3         17.5375   17.8434   23.0331 O.2         1 BDI      -0.3913
     16 H1         12.8366   16.0815   21.0093 H           1 BDI       0.2418
     17 H2         15.3689   16.8527   18.3127 H           1 BDI       0.0512
     18 H3         13.8794   17.7700   18.4191 H           1 BDI       0.0512
     19 H4         13.6521   15.6463   17.1574 H           1 BDI       0.0294
     20 H5         12.5413   15.7453   18.5107 H           1 BDI       0.0294
     21 H6         13.9202   13.5151   17.8793 H           1 BDI       0.0264
     22 H7         13.3539   13.8584   19.5101 H           1 BDI       0.0264
     23 H8         15.6902   12.9861   19.4459 H           1 BDI       0.0230
     24 H9         15.6120   14.5966   20.1838 H           1 BDI       0.0230
     25 H10        16.2015   14.4003   18.5153 H           1 BDI       0.0230
     26 H11        16.6057   17.1311   25.1663 H           1 BDI       0.2151
     27 H12        14.5794   16.2079   25.5340 H           1 BDI       0.2153
@<TRIPOS>BOND
     1     1     2   1
     2     1    14   1
     3     2     3   1
     4     2     7   2
     5     3     4   1
     6     4     5   1
     7     5     6   1
     8     7     8   1
     9     8     9   1
    10     8    14   2
    11     9    10  am
    12     9    15   2
    13    10    11   1
    14    11    12  am
    15    12    13   2
    16    12    14   1
    17     1    16   1
    18     3    17   1
    19     3    18   1
    20     4    19   1
    21     4    20   1
    22     5    21   1
    23     5    22   1
    24     6    23   1
    25     6    24   1
    26     6    25   1
    27    10    26   1
    28    11    27   1
@<TRIPOS>SUBSTRUCTURE
     1  BDI      2

