@<TRIPOS>MOLECULE
1nvq_ligand_019
    63    70
SMALL
GAST_HUCK
****
This file was generated by PARSER (from files_GN.cpp)

@<TRIPOS>ATOM
      1 O37        11.7258    5.0935   15.5809 O.3         1 UCN      -0.3582
      2 C9         10.7176    5.1456   14.5764 C.3         1 UCN       0.1708
      3 N1         10.2607    3.8497   14.2317 N.am        1 UCN      -0.2534
      4 C8          9.0155    3.6270   14.5861 C.2         1 UCN       0.1891
      5 O5          8.4600    2.5738   14.3274 O.2         1 UCN      -0.3964
      6 C7          8.5013    4.7295   15.2116 C.ar        1 UCN       0.0346
      7 C6          7.2976    5.0166   15.9024 C.ar        1 UCN      -0.0017
      8 C5          6.1677    4.2652   16.2328 C.ar        1 UCN      -0.0071
      9 C20         5.3353    5.1057   16.9848 C.ar        1 UCN       0.0681
     10 C1          4.0905    4.6411   17.4629 C.ar        1 UCN      -0.0404
     11 C2          3.6917    3.3216   17.1835 C.ar        1 UCN      -0.0732
     12 C3          4.5424    2.4616   16.4632 C.ar        1 UCN      -0.0750
     13 C4          5.7833    2.9289   15.9867 C.ar        1 UCN      -0.0685
     14 N3          5.9310    6.3123   17.1399 N.pl3       1 UCN      -0.2376
     15 C19         7.1091    6.2897   16.4813 C.ar        1 UCN       0.0952
     16 C18         8.1015    7.2986   16.3775 C.ar        1 UCN       0.0979
     17 N2          8.1807    8.5646   16.8896 N.pl3       1 UCN      -0.2292
     18 C17         9.4130    9.0586   16.5430 C.ar        1 UCN       0.0695
     19 C12        10.1023    8.1070   15.7775 C.ar        1 UCN      -0.0074
     20 C13        11.3729    8.3662   15.2239 C.ar        1 UCN      -0.0696
     21 C14        11.9639    9.6235   15.4325 C.ar        1 UCN      -0.0759
     22 C15        11.3116   10.5834   16.2247 C.ar        1 UCN      -0.0739
     23 C16        10.0585   10.2918   16.7966 C.ar        1 UCN      -0.0408
     24 C11         9.2900    6.9883   15.7042 C.ar        1 UCN       0.0037
     25 C10         9.4979    5.7100   15.1509 C.ar        1 UCN       0.0127
     26 C21         7.1324    9.2227   17.6798 C.3         1 UCN       0.2020
     27 O4          5.8276    8.6698   17.3868 O.3         1 UCN      -0.3149
     28 C25         5.4234    7.4038   17.9157 C.3         1 UCN       0.1668
     29 C24         5.7300    7.2696   19.4321 C.3         1 UCN       0.0455
     30 C23         7.1666    7.7287   19.8194 C.3         1 UCN       0.0141
     31 N4          8.2207    6.7365   19.4407 N.4         1 UCN       0.2291
     32 C28         9.2598    6.3769   20.4384 C.3         1 UCN      -0.0445
     33 C22         7.4163    9.1525   19.2264 C.3         1 UCN       0.1556
     34 O6          8.7528    9.6272   19.4828 O.3         1 UCN      -0.3686
     35 C27         9.1283    9.8700   20.8450 C.3         1 UCN       0.0373
     36 C26         6.8623   10.7098   17.2670 C.3         1 UCN      -0.0059
     37 H1         12.5570    5.3528   15.1383 H           1 UCN       0.2154
     38 H2         11.0482    5.6976   13.6955 H           1 UCN       0.1031
     39 H3         10.8112    3.1945   13.7741 H           1 UCN       0.1889
     40 H4          3.4727    5.2482   18.0041 H           1 UCN       0.0539
     41 H5          2.7854    2.9830   17.5144 H           1 UCN       0.0568
     42 H6          4.2626    1.4937   16.2900 H           1 UCN       0.0516
     43 H7          6.3822    2.2851   15.4796 H           1 UCN       0.0576
     44 H8         11.8593    7.6792   14.6527 H           1 UCN       0.0566
     45 H9         12.8718    9.8382   15.0141 H           1 UCN       0.0516
     46 H10        11.7514   11.4917   16.3891 H           1 UCN       0.0561
     47 H11         9.6483   10.9879   17.4017 H           1 UCN       0.0538
     48 H12         4.3365    7.4235   17.7992 H           1 UCN       0.0933
     49 H13         5.5607    6.2412   19.7584 H           1 UCN       0.0372
     50 H14         5.0072    7.8909   19.9751 H           1 UCN       0.0372
     51 H15         7.1463    7.8134   20.9084 H           1 UCN       0.0880
     52 H16         8.7172    7.0922   18.6270 H           1 UCN       0.2014
     53 H17         7.7545    5.8752   19.1581 H           1 UCN       0.2014
     54 H18         9.7999    5.4923   20.0861 H           1 UCN       0.0777
     55 H19         8.8157    6.1398   21.4088 H           1 UCN       0.0777
     56 H20         9.9796    7.1914   20.5627 H           1 UCN       0.0777
     57 H21         6.7065    9.8350   19.7132 H           1 UCN       0.0710
     58 H22        10.0657   10.4172   20.8336 H           1 UCN       0.0524
     59 H23         9.2994    8.9348   21.3738 H           1 UCN       0.0524
     60 H24         8.3861   10.4753   21.3720 H           1 UCN       0.0524
     61 H25         5.8757   11.0393   17.6026 H           1 UCN       0.0284
     62 H26         6.9025   10.8245   16.1848 H           1 UCN       0.0284
     63 H27         7.5592   11.4053   17.7226 H           1 UCN       0.0284
@<TRIPOS>BOND
     1     2     1   1
     2     2     3   1
     3     2    25   1
     4     3     4  am
     5     4     5   2
     6     4     6   1
     7     6     7  ar
     8    25     6  ar
     9     7     8   1
    10     7    15  ar
    11     8     9  ar
    12     8    13  ar
    13     9    10  ar
    14     9    14   1
    15    10    11  ar
    16    11    12  ar
    17    13    12  ar
    18    14    15   1
    19    14    28   1
    20    15    16  ar
    21    16    17   1
    22    16    24  ar
    23    17    18   1
    24    17    26   1
    25    18    19  ar
    26    18    23  ar
    27    19    20  ar
    28    19    24   1
    29    20    21  ar
    30    21    22  ar
    31    23    22  ar
    32    24    25  ar
    33    26    27   1
    34    26    33   1
    35    26    36   1
    36    27    28   1
    37    28    29   1
    38    29    30   1
    39    30    31   1
    40    33    30   1
    41    31    32   1
    42    33    34   1
    43    34    35   1
    44     1    37   1
    45     2    38   1
    46     3    39   1
    47    10    40   1
    48    11    41   1
    49    12    42   1
    50    13    43   1
    51    20    44   1
    52    21    45   1
    53    22    46   1
    54    23    47   1
    55    28    48   1
    56    29    49   1
    57    29    50   1
    58    30    51   1
    59    31    52   1
    60    31    53   1
    61    32    54   1
    62    32    55   1
    63    32    56   1
    64    33    57   1
    65    35    58   1
    66    35    59   1
    67    35    60   1
    68    36    61   1
    69    36    62   1
    70    36    63   1
@<TRIPOS>SUBSTRUCTURE
     1  UCN      2

