@<TRIPOS>MOLECULE
1nvq_ligand_014
    63    70
SMALL
GAST_HUCK
****
This file was generated by PARSER (from files_GN.cpp)

@<TRIPOS>ATOM
      1 O37        -5.1735    2.4914   17.4479 O.3         1 UCN      -0.3582
      2 C9         -4.7716    3.6652   16.7487 C.3         1 UCN       0.1708
      3 N1         -4.8491    4.7952   17.5998 N.am        1 UCN      -0.2534
      4 C8         -3.6842    5.3541   17.8323 C.2         1 UCN       0.1891
      5 O5         -3.5960    6.3535   18.5254 O.2         1 UCN      -0.3964
      6 C7         -2.6986    4.6879   17.1562 C.ar        1 UCN       0.0346
      7 C6         -1.2914    4.8191   17.0716 C.ar        1 UCN      -0.0017
      8 C5         -0.3522    5.6458   17.6926 C.ar        1 UCN      -0.0071
      9 C20         0.9068    5.2531   17.2159 C.ar        1 UCN       0.0681
     10 C1          2.0828    5.8760   17.6896 C.ar        1 UCN      -0.0404
     11 C2          1.9805    6.9103   18.6368 C.ar        1 UCN      -0.0732
     12 C3          0.7173    7.3173   19.1066 C.ar        1 UCN      -0.0750
     13 C4         -0.4500    6.6835   18.6433 C.ar        1 UCN      -0.0685
     14 N3          0.7533    4.2534   16.3139 N.pl3       1 UCN      -0.2376
     15 C19        -0.5637    3.9623   16.2224 C.ar        1 UCN       0.0952
     16 C18        -1.2104    2.9546   15.4644 C.ar        1 UCN       0.0979
     17 N2         -0.7239    2.0289   14.5863 N.pl3       1 UCN      -0.2292
     18 C17        -1.7747    1.2182   14.2476 C.ar        1 UCN       0.0695
     19 C12        -2.9509    1.7026   14.8402 C.ar        1 UCN      -0.0074
     20 C13        -4.2083    1.1103   14.6024 C.ar        1 UCN      -0.0696
     21 C14        -4.2881   -0.0179   13.7688 C.ar        1 UCN      -0.0759
     22 C15        -3.1191   -0.5407   13.1835 C.ar        1 UCN      -0.0739
     23 C16        -1.8731    0.0821   13.4060 C.ar        1 UCN      -0.0408
     24 C11        -2.5920    2.7873   15.6234 C.ar        1 UCN       0.0037
     25 C10        -3.3322    3.6527   16.4572 C.ar        1 UCN       0.0127
     26 C21         0.6456    1.9996   14.0505 C.3         1 UCN       0.2020
     27 O4          1.3328    3.2615   14.2441 O.3         1 UCN      -0.3149
     28 C25         1.8039    3.6586   15.5394 C.3         1 UCN       0.1668
     29 C24         2.5906    2.5305   16.2620 C.3         1 UCN       0.0455
     30 C23         1.9036    1.1384   16.1567 C.3         1 UCN       0.0141
     31 N4          0.7958    1.0605   17.1515 N.4         1 UCN       0.2291
     32 C28         0.4024   -0.2613   17.6863 C.3         1 UCN      -0.0445
     33 C22         1.5426    0.8624   14.6581 C.3         1 UCN       0.1556
     34 O6          0.9433   -0.4377   14.4761 O.3         1 UCN      -0.3686
     35 C27         1.8176   -1.5874   14.5449 C.3         1 UCN       0.0373
     36 C26         0.6711    1.9475   12.4859 C.3         1 UCN      -0.0059
     37 H1         -6.1497    2.5598   17.5256 H           1 UCN       0.2154
     38 H2         -5.3664    3.8251   15.8461 H           1 UCN       0.1031
     39 H3         -5.6829    5.1181   17.9794 H           1 UCN       0.1889
     40 H4          3.0025    5.5745   17.3662 H           1 UCN       0.0539
     41 H5          2.8287    7.3646   18.9883 H           1 UCN       0.0568
     42 H6          0.6515    8.0687   19.7998 H           1 UCN       0.0516
     43 H7         -1.3456    6.9881   19.0124 H           1 UCN       0.0576
     44 H8         -5.0622    1.4800   15.0205 H           1 UCN       0.0566
     45 H9         -5.1901   -0.4689   13.5969 H           1 UCN       0.0516
     46 H10        -3.1772   -1.3724   12.5879 H           1 UCN       0.0561
     47 H11        -1.0584   -0.3343   12.9723 H           1 UCN       0.0538
     48 H12         2.5272    4.4450   15.3073 H           1 UCN       0.0933
     49 H13         2.7543    2.7953   17.3087 H           1 UCN       0.0372
     50 H14         3.5785    2.4540   15.7969 H           1 UCN       0.0372
     51 H15         2.6500    0.3967   16.4633 H           1 UCN       0.0880
     52 H16        -0.0390    1.4810   16.7475 H           1 UCN       0.2014
     53 H17         1.0600    1.6405   17.9500 H           1 UCN       0.2014
     54 H18        -0.2131   -0.1025   18.5794 H           1 UCN       0.0777
     55 H19         1.2804   -0.8482   17.9736 H           1 UCN       0.0777
     56 H20        -0.1906   -0.8048   16.9449 H           1 UCN       0.0777
     57 H21         2.4934    0.8860   14.1021 H           1 UCN       0.0710
     58 H22         1.2079   -2.4882   14.4979 H           1 UCN       0.0524
     59 H23         2.3857   -1.6094   15.4764 H           1 UCN       0.0524
     60 H24         2.5078   -1.5845   13.6928 H           1 UCN       0.0524
     61 H25         1.6484    2.2452   12.0933 H           1 UCN       0.0284
     62 H26        -0.0730    2.6313   12.0716 H           1 UCN       0.0284
     63 H27         0.4834    0.9539   12.0929 H           1 UCN       0.0284
@<TRIPOS>BOND
     1     2     1   1
     2     2     3   1
     3     2    25   1
     4     3     4  am
     5     4     5   2
     6     4     6   1
     7     6     7  ar
     8    25     6  ar
     9     7     8   1
    10     7    15  ar
    11     8     9  ar
    12     8    13  ar
    13     9    10  ar
    14     9    14   1
    15    10    11  ar
    16    11    12  ar
    17    13    12  ar
    18    14    15   1
    19    14    28   1
    20    15    16  ar
    21    16    17   1
    22    16    24  ar
    23    17    18   1
    24    17    26   1
    25    18    19  ar
    26    18    23  ar
    27    19    20  ar
    28    19    24   1
    29    20    21  ar
    30    21    22  ar
    31    23    22  ar
    32    24    25  ar
    33    26    27   1
    34    26    33   1
    35    26    36   1
    36    27    28   1
    37    28    29   1
    38    29    30   1
    39    30    31   1
    40    33    30   1
    41    31    32   1
    42    33    34   1
    43    34    35   1
    44     1    37   1
    45     2    38   1
    46     3    39   1
    47    10    40   1
    48    11    41   1
    49    12    42   1
    50    13    43   1
    51    20    44   1
    52    21    45   1
    53    22    46   1
    54    23    47   1
    55    28    48   1
    56    29    49   1
    57    29    50   1
    58    30    51   1
    59    31    52   1
    60    31    53   1
    61    32    54   1
    62    32    55   1
    63    32    56   1
    64    33    57   1
    65    35    58   1
    66    35    59   1
    67    35    60   1
    68    36    61   1
    69    36    62   1
    70    36    63   1
@<TRIPOS>SUBSTRUCTURE
     1  UCN      2

