@<TRIPOS>MOLECULE
1nvq_ligand_028
    63    70
SMALL
GAST_HUCK
****
This file was generated by PARSER (from files_GN.cpp)

@<TRIPOS>ATOM
      1 O37        10.4940    7.2458    8.7741 O.3         1 UCN      -0.3582
      2 C9          9.9518    6.5060    7.6924 C.3         1 UCN       0.1708
      3 N1         10.9647    6.2385    6.7518 N.am        1 UCN      -0.2534
      4 C8         11.1951    4.9592    6.6229 C.2         1 UCN       0.1891
      5 O5         12.0037    4.5644    5.8064 O.2         1 UCN      -0.3964
      6 C7         10.3834    4.2203    7.4359 C.ar        1 UCN       0.0346
      7 C6         10.2356    2.8331    7.7100 C.ar        1 UCN      -0.0017
      8 C5         10.9150    1.6741    7.3168 C.ar        1 UCN      -0.0071
      9 C20        10.2879    0.5958    7.9490 C.ar        1 UCN       0.0681
     10 C1         10.7623   -0.7213    7.7617 C.ar        1 UCN      -0.0404
     11 C2         11.8722   -0.9540    6.9273 C.ar        1 UCN      -0.0732
     12 C3         12.5034    0.1215    6.2822 C.ar        1 UCN      -0.0750
     13 C4         12.0291    1.4346    6.4811 C.ar        1 UCN      -0.0685
     14 N3          9.2567    1.0569    8.6946 N.pl3       1 UCN      -0.2376
     15 C19         9.2101    2.4022    8.5720 C.ar        1 UCN       0.0952
     16 C18         8.3600    3.3370    9.2134 C.ar        1 UCN       0.0979
     17 N2          7.3530    3.1704   10.1192 N.pl3       1 UCN      -0.2292
     18 C17         6.9763    4.4247   10.5282 C.ar        1 UCN       0.0695
     19 C12         7.6979    5.3890    9.8058 C.ar        1 UCN      -0.0074
     20 C13         7.4885    6.7736    9.9819 C.ar        1 UCN      -0.0696
     21 C14         6.5419    7.2046   10.9314 C.ar        1 UCN      -0.0759
     22 C15         5.8319    6.2613   11.6991 C.ar        1 UCN      -0.0739
     23 C16         6.0534    4.8816   11.5042 C.ar        1 UCN      -0.0408
     24 C11         8.5796    4.7033    8.9865 C.ar        1 UCN       0.0037
     25 C10         9.5739    5.1480    8.0943 C.ar        1 UCN       0.0127
     26 C21         6.7996    1.8793   10.5421 C.3         1 UCN       0.2020
     27 O4          7.0614    0.8430    9.5646 O.3         1 UCN      -0.3149
     28 C25         8.3566    0.2420    9.4530 C.3         1 UCN       0.1668
     29 C24         8.9190   -0.2122   10.8267 C.3         1 UCN       0.0455
     30 C23         8.7640    0.8661   11.9294 C.3         1 UCN       0.0141
     31 N4          9.7487    1.9654   11.7442 N.4         1 UCN       0.2291
     32 C28        10.8206    2.1102   12.7432 C.3         1 UCN      -0.0445
     33 C22         7.2967    1.4020   11.9597 C.3         1 UCN       0.1556
     34 O6          7.1077    2.4564   12.9315 O.3         1 UCN      -0.3686
     35 C27         7.1780    2.1212   14.3240 C.3         1 UCN       0.0373
     36 C26         5.2358    1.8771   10.4843 C.3         1 UCN      -0.0059
     37 H1         10.6595    8.1434    8.4169 H           1 UCN       0.2154
     38 H2          9.1168    7.0170    7.2188 H           1 UCN       0.1031
     39 H3         11.4403    6.9193    6.2475 H           1 UCN       0.1889
     40 H4         10.3187   -1.5089    8.2305 H           1 UCN       0.0539
     41 H5         12.2261   -1.9026    6.7907 H           1 UCN       0.0568
     42 H6         13.3138   -0.0536    5.6772 H           1 UCN       0.0516
     43 H7         12.5123    2.1975    6.0154 H           1 UCN       0.0576
     44 H8          7.9765    7.4628    9.4100 H           1 UCN       0.0566
     45 H9          6.3401    8.2016   11.0448 H           1 UCN       0.0516
     46 H10         5.1263    6.5789   12.3698 H           1 UCN       0.0561
     47 H11         5.5312    4.2392   12.0898 H           1 UCN       0.0538
     48 H12         8.1651   -0.6576    8.8621 H           1 UCN       0.0933
     49 H13         9.9686   -0.5014   10.7338 H           1 UCN       0.0372
     50 H14         8.3676   -1.1024   11.1407 H           1 UCN       0.0372
     51 H15         8.9506    0.3577   12.8808 H           1 UCN       0.0880
     52 H16         9.2362    2.8362   11.7341 H           1 UCN       0.2014
     53 H17        10.1900    1.8712   10.8318 H           1 UCN       0.2014
     54 H18        11.5106    2.8859   12.4094 H           1 UCN       0.0777
     55 H19        11.3645    1.1721   12.8494 H           1 UCN       0.0777
     56 H20        10.4022    2.4081   13.7046 H           1 UCN       0.0777
     57 H21         6.6646    0.5557   12.2544 H           1 UCN       0.0710
     58 H22         6.9305    3.0163   14.8946 H           1 UCN       0.0524
     59 H23         8.1757    1.7909   14.6158 H           1 UCN       0.0524
     60 H24         6.4493    1.3462   14.5614 H           1 UCN       0.0524
     61 H25         4.8413    0.8574   10.4543 H           1 UCN       0.0284
     62 H26         4.8868    2.4007    9.5913 H           1 UCN       0.0284
     63 H27         4.7872    2.3393   11.3581 H           1 UCN       0.0284
@<TRIPOS>BOND
     1     2     1   1
     2     2     3   1
     3     2    25   1
     4     3     4  am
     5     4     5   2
     6     4     6   1
     7     6     7  ar
     8    25     6  ar
     9     7     8   1
    10     7    15  ar
    11     8     9  ar
    12     8    13  ar
    13     9    10  ar
    14     9    14   1
    15    10    11  ar
    16    11    12  ar
    17    13    12  ar
    18    14    15   1
    19    14    28   1
    20    15    16  ar
    21    16    17   1
    22    16    24  ar
    23    17    18   1
    24    17    26   1
    25    18    19  ar
    26    18    23  ar
    27    19    20  ar
    28    19    24   1
    29    20    21  ar
    30    21    22  ar
    31    23    22  ar
    32    24    25  ar
    33    26    27   1
    34    26    33   1
    35    26    36   1
    36    27    28   1
    37    28    29   1
    38    29    30   1
    39    30    31   1
    40    33    30   1
    41    31    32   1
    42    33    34   1
    43    34    35   1
    44     1    37   1
    45     2    38   1
    46     3    39   1
    47    10    40   1
    48    11    41   1
    49    12    42   1
    50    13    43   1
    51    20    44   1
    52    21    45   1
    53    22    46   1
    54    23    47   1
    55    28    48   1
    56    29    49   1
    57    29    50   1
    58    30    51   1
    59    31    52   1
    60    31    53   1
    61    32    54   1
    62    32    55   1
    63    32    56   1
    64    33    57   1
    65    35    58   1
    66    35    59   1
    67    35    60   1
    68    36    61   1
    69    36    62   1
    70    36    63   1
@<TRIPOS>SUBSTRUCTURE
     1  UCN      2

