@<TRIPOS>MOLECULE
1nvq_ligand_003
    63    70
SMALL
GAST_HUCK
****
This file was generated by PARSER (from files_GN.cpp)

@<TRIPOS>ATOM
      1 O37         6.3763    4.7572   13.0458 O.3         1 UCN      -0.3582
      2 C9          5.5404    3.6500   13.3788 C.3         1 UCN       0.1708
      3 N1          4.1900    4.0480   13.2408 N.am        1 UCN      -0.2534
      4 C8          3.5513    3.4028   12.2924 C.2         1 UCN       0.1891
      5 O5          2.3690    3.6102   12.0732 O.2         1 UCN      -0.3964
      6 C7          4.3725    2.4802   11.7118 C.ar        1 UCN       0.0346
      7 C6          4.2359    1.5700   10.6340 C.ar        1 UCN      -0.0017
      8 C5          3.2338    1.3242    9.6906 C.ar        1 UCN      -0.0071
      9 C20         3.7233    0.3259    8.8371 C.ar        1 UCN       0.0681
     10 C1          2.9468   -0.1321    7.7474 C.ar        1 UCN      -0.0404
     11 C2          1.6749    0.4249    7.5225 C.ar        1 UCN      -0.0732
     12 C3          1.1895    1.4412    8.3665 C.ar        1 UCN      -0.0750
     13 C4          1.9665    1.8951    9.4503 C.ar        1 UCN      -0.0685
     14 N3          4.9689   -0.0285    9.2264 N.pl3       1 UCN      -0.2376
     15 C19         5.2998    0.7018   10.3172 C.ar        1 UCN       0.0952
     16 C18         6.5117    0.7292   11.0521 C.ar        1 UCN       0.0979
     17 N2          7.6745    0.0258   10.9166 N.pl3       1 UCN      -0.2292
     18 C17         8.5589    0.5355   11.8266 C.ar        1 UCN       0.0695
     19 C12         7.9297    1.5351   12.5853 C.ar        1 UCN      -0.0074
     20 C13         8.5961    2.2209   13.6234 C.ar        1 UCN      -0.0696
     21 C14         9.9326    1.8951   13.9129 C.ar        1 UCN      -0.0759
     22 C15        10.5904    0.9065   13.1601 C.ar        1 UCN      -0.0739
     23 C16         9.9102    0.2286   12.1304 C.ar        1 UCN      -0.0408
     24 C11         6.6503    1.6807   12.0758 C.ar        1 UCN       0.0037
     25 C10         5.5959    2.5637   12.3919 C.ar        1 UCN       0.0127
     26 C21         7.8923   -1.0645    9.9581 C.3         1 UCN       0.2020
     27 O4          6.6506   -1.6619    9.5191 O.3         1 UCN      -0.3149
     28 C25         5.8018   -0.9982    8.5740 C.3         1 UCN       0.1668
     29 C24         6.5826   -0.4591    7.3383 C.3         1 UCN       0.0455
     30 C23         7.8896    0.2951    7.7163 C.3         1 UCN       0.0141
     31 N4          7.5449    1.6942    8.1269 N.4         1 UCN       0.2291
     32 C28         8.5678    2.5162    8.8094 C.3         1 UCN      -0.0445
     33 C22         8.7151   -0.6170    8.6932 C.3         1 UCN       0.1556
     34 O6          9.9767   -0.0343    9.0901 O.3         1 UCN      -0.3686
     35 C27        11.0070    0.0796    8.0877 C.3         1 UCN       0.0373
     36 C26         8.5392   -2.3237   10.6280 C.3         1 UCN      -0.0059
     37 H1          7.0938    4.4078   12.4722 H           1 UCN       0.2154
     38 H2          5.7316    3.2875   14.3908 H           1 UCN       0.1031
     39 H3          3.7828    4.7463   13.7790 H           1 UCN       0.1889
     40 H4          3.2982   -0.8497    7.1154 H           1 UCN       0.0539
     41 H5          1.1092    0.1040    6.7332 H           1 UCN       0.0568
     42 H6          0.2738    1.8595    8.1852 H           1 UCN       0.0516
     43 H7          1.5978    2.6420   10.0309 H           1 UCN       0.0576
     44 H8          8.1296    2.9418   14.1729 H           1 UCN       0.0566
     45 H9         10.4310    2.3882   14.6584 H           1 UCN       0.0516
     46 H10        11.5689    0.6856   13.3577 H           1 UCN       0.0561
     47 H11        10.4397   -0.4448   11.5894 H           1 UCN       0.0538
     48 H12         5.1516   -1.8017    8.2150 H           1 UCN       0.0933
     49 H13         5.9346    0.1809    6.7314 H           1 UCN       0.0372
     50 H14         6.8571   -1.3166    6.7140 H           1 UCN       0.0372
     51 H15         8.4676    0.3965    6.7929 H           1 UCN       0.0880
     52 H16         6.7127    1.6759    8.7173 H           1 UCN       0.2014
     53 H17         7.3084    2.2069    7.2675 H           1 UCN       0.2014
     54 H18         8.1921    3.5486    8.8628 H           1 UCN       0.0777
     55 H19         9.5115    2.5189    8.2425 H           1 UCN       0.0777
     56 H20         8.7299    2.1510    9.8300 H           1 UCN       0.0777
     57 H21         8.9327   -1.5393    8.1374 H           1 UCN       0.0710
     58 H22        11.9012    0.4866    8.5639 H           1 UCN       0.0524
     59 H23        10.7035    0.7602    7.2867 H           1 UCN       0.0524
     60 H24        11.2613   -0.8956    7.6642 H           1 UCN       0.0524
     61 H25         8.3628   -3.2283   10.0368 H           1 UCN       0.0284
     62 H26         8.1154   -2.4864   11.6215 H           1 UCN       0.0284
     63 H27         9.6177   -2.2414   10.7165 H           1 UCN       0.0284
@<TRIPOS>BOND
     1     2     1   1
     2     2     3   1
     3     2    25   1
     4     3     4  am
     5     4     5   2
     6     4     6   1
     7     6     7  ar
     8    25     6  ar
     9     7     8   1
    10     7    15  ar
    11     8     9  ar
    12     8    13  ar
    13     9    10  ar
    14     9    14   1
    15    10    11  ar
    16    11    12  ar
    17    13    12  ar
    18    14    15   1
    19    14    28   1
    20    15    16  ar
    21    16    17   1
    22    16    24  ar
    23    17    18   1
    24    17    26   1
    25    18    19  ar
    26    18    23  ar
    27    19    20  ar
    28    19    24   1
    29    20    21  ar
    30    21    22  ar
    31    23    22  ar
    32    24    25  ar
    33    26    27   1
    34    26    33   1
    35    26    36   1
    36    27    28   1
    37    28    29   1
    38    29    30   1
    39    30    31   1
    40    33    30   1
    41    31    32   1
    42    33    34   1
    43    34    35   1
    44     1    37   1
    45     2    38   1
    46     3    39   1
    47    10    40   1
    48    11    41   1
    49    12    42   1
    50    13    43   1
    51    20    44   1
    52    21    45   1
    53    22    46   1
    54    23    47   1
    55    28    48   1
    56    29    49   1
    57    29    50   1
    58    30    51   1
    59    31    52   1
    60    31    53   1
    61    32    54   1
    62    32    55   1
    63    32    56   1
    64    33    57   1
    65    35    58   1
    66    35    59   1
    67    35    60   1
    68    36    61   1
    69    36    62   1
    70    36    63   1
@<TRIPOS>SUBSTRUCTURE
     1  UCN      2

