@<TRIPOS>MOLECULE
1nvq_ligand_015
    63    70
SMALL
GAST_HUCK
****
This file was generated by PARSER (from files_GN.cpp)

@<TRIPOS>ATOM
      1 O37         6.5593    7.4913   16.6005 O.3         1 UCN      -0.3582
      2 C9          6.6129    6.3281   17.4225 C.3         1 UCN       0.1708
      3 N1          5.3994    6.2225   18.1442 N.am        1 UCN      -0.2534
      4 C8          4.6846    5.1690   17.8212 C.2         1 UCN       0.1891
      5 O5          3.6296    4.9371   18.3690 O.2         1 UCN      -0.3964
      6 C7          5.3501    4.4253   16.8859 C.ar        1 UCN       0.0346
      7 C6          5.0456    3.2450   16.1658 C.ar        1 UCN      -0.0017
      8 C5          3.9080    2.4383   16.0638 C.ar        1 UCN      -0.0071
      9 C20         4.2246    1.4145   15.1616 C.ar        1 UCN       0.0681
     10 C1          3.2727    0.4150   14.8508 C.ar        1 UCN      -0.0404
     11 C2          2.0015    0.4607   15.4503 C.ar        1 UCN      -0.0732
     12 C3          1.6750    1.4994   16.3429 C.ar        1 UCN      -0.0750
     13 C4          2.6218    2.4973   16.6449 C.ar        1 UCN      -0.0685
     14 N3          5.4919    1.5786   14.7121 N.pl3       1 UCN      -0.2376
     15 C19         6.0114    2.6762   15.3081 C.ar        1 UCN       0.0952
     16 C18         7.2809    3.2833   15.1294 C.ar        1 UCN       0.0979
     17 N2          8.3408    2.9514   14.3356 N.pl3       1 UCN      -0.2292
     18 C17         9.2606    3.9627   14.4658 C.ar        1 UCN       0.0695
     19 C12         8.7889    4.9160   15.3785 C.ar        1 UCN      -0.0074
     20 C13         9.5460    6.0559   15.7342 C.ar        1 UCN      -0.0696
     21 C14        10.7947    6.2600   15.1281 C.ar        1 UCN      -0.0759
     22 C15        11.2810    5.3300   14.1942 C.ar        1 UCN      -0.0739
     23 C16        10.5249    4.1827   13.8739 C.ar        1 UCN      -0.0408
     24 C11         7.5317    4.4995   15.7893 C.ar        1 UCN       0.0037
     25 C10         6.5736    5.0703   16.6570 C.ar        1 UCN       0.0127
     26 C21         8.4709    1.7111   13.5534 C.3         1 UCN       0.2020
     27 O4          7.5926    0.6776   14.0710 O.3         1 UCN      -0.3149
     28 C25         6.1813    0.6918   13.8229 C.3         1 UCN       0.1668
     29 C24         5.8654    0.8885   12.3159 C.3         1 UCN       0.0455
     30 C23         6.6720    2.0588   11.6781 C.3         1 UCN       0.0141
     31 N4          6.2185    3.4193   12.0662 N.4         1 UCN       0.2291
     32 C28         4.8280    3.8093   11.7492 C.3         1 UCN      -0.0445
     33 C22         8.1828    1.8378   12.0043 C.3         1 UCN       0.1556
     34 O6          8.9841    2.8788   11.4034 O.3         1 UCN      -0.3686
     35 C27         9.9293    2.4972   10.3845 C.3         1 UCN       0.0373
     36 C26         9.8576    1.0164   13.7728 C.3         1 UCN      -0.0059
     37 H1          7.3342    7.4651   16.0293 H           1 UCN       0.2154
     38 H2          7.4670    6.3616   18.1046 H           1 UCN       0.1031
     39 H3          5.1115    6.8830   18.7907 H           1 UCN       0.1889
     40 H4          3.4945   -0.3339   14.1954 H           1 UCN       0.0539
     41 H5          1.3080   -0.2587   15.2323 H           1 UCN       0.0568
     42 H6          0.7480    1.5351   16.7690 H           1 UCN       0.0516
     43 H7          2.3561    3.2424   17.2792 H           1 UCN       0.0576
     44 H8          9.2107    6.7267   16.4185 H           1 UCN       0.0566
     45 H9         11.3508    7.0873   15.3593 H           1 UCN       0.0516
     46 H10        12.1810    5.4925   13.7338 H           1 UCN       0.0561
     47 H11        10.9065    3.5560   13.1765 H           1 UCN       0.0538
     48 H12         5.8728   -0.3203   14.0783 H           1 UCN       0.0933
     49 H13         4.7892    1.0095   12.1701 H           1 UCN       0.0372
     50 H14         6.1263   -0.0343   11.7831 H           1 UCN       0.0372
     51 H15         6.5590    1.9920   10.5997 H           1 UCN       0.0880
     52 H16         6.8678    4.0881   11.6383 H           1 UCN       0.2014
     53 H17         6.3176    3.5224   13.0695 H           1 UCN       0.2014
     54 H18         4.6887    4.8572   12.0163 H           1 UCN       0.0777
     55 H19         4.1033    3.2452   12.3354 H           1 UCN       0.0777
     56 H20         4.6268    3.6720   10.6872 H           1 UCN       0.0777
     57 H21         8.4361    0.8626   11.5534 H           1 UCN       0.0710
     58 H22        10.6377    1.7482   10.7409 H           1 UCN       0.0524
     59 H23        10.4968    3.3801   10.0876 H           1 UCN       0.0524
     60 H24         9.4003    2.1040    9.5171 H           1 UCN       0.0524
     61 H25         9.8088   -0.0431   13.5186 H           1 UCN       0.0284
     62 H26        10.1783    1.1200   14.8065 H           1 UCN       0.0284
     63 H27        10.6319    1.4249   13.1424 H           1 UCN       0.0284
@<TRIPOS>BOND
     1     2     1   1
     2     2     3   1
     3     2    25   1
     4     3     4  am
     5     4     5   2
     6     4     6   1
     7     6     7  ar
     8    25     6  ar
     9     7     8   1
    10     7    15  ar
    11     8     9  ar
    12     8    13  ar
    13     9    10  ar
    14     9    14   1
    15    10    11  ar
    16    11    12  ar
    17    13    12  ar
    18    14    15   1
    19    14    28   1
    20    15    16  ar
    21    16    17   1
    22    16    24  ar
    23    17    18   1
    24    17    26   1
    25    18    19  ar
    26    18    23  ar
    27    19    20  ar
    28    19    24   1
    29    20    21  ar
    30    21    22  ar
    31    23    22  ar
    32    24    25  ar
    33    26    27   1
    34    26    33   1
    35    26    36   1
    36    27    28   1
    37    28    29   1
    38    29    30   1
    39    30    31   1
    40    33    30   1
    41    31    32   1
    42    33    34   1
    43    34    35   1
    44     1    37   1
    45     2    38   1
    46     3    39   1
    47    10    40   1
    48    11    41   1
    49    12    42   1
    50    13    43   1
    51    20    44   1
    52    21    45   1
    53    22    46   1
    54    23    47   1
    55    28    48   1
    56    29    49   1
    57    29    50   1
    58    30    51   1
    59    31    52   1
    60    31    53   1
    61    32    54   1
    62    32    55   1
    63    32    56   1
    64    33    57   1
    65    35    58   1
    66    35    59   1
    67    35    60   1
    68    36    61   1
    69    36    62   1
    70    36    63   1
@<TRIPOS>SUBSTRUCTURE
     1  UCN      2

