@<TRIPOS>MOLECULE
1nvq_ligand_021
    63    70
SMALL
GAST_HUCK
****
This file was generated by PARSER (from files_GN.cpp)

@<TRIPOS>ATOM
      1 O37        -5.0250    5.4698   16.7235 O.3         1 UCN      -0.3582
      2 C9         -4.4520    4.5047   17.5966 C.3         1 UCN       0.1708
      3 N1         -4.3909    3.2389   16.9652 N.am        1 UCN      -0.2534
      4 C8         -3.1671    2.7949   16.8018 C.2         1 UCN       0.1891
      5 O5         -2.9535    1.6957   16.3199 O.2         1 UCN      -0.3964
      6 C7         -2.2690    3.6955   17.3041 C.ar        1 UCN       0.0346
      7 C6         -0.8541    3.7524   17.3723 C.ar        1 UCN      -0.0017
      8 C5          0.1757    2.9470   16.8788 C.ar        1 UCN      -0.0071
      9 C20         1.3775    3.5619   17.2540 C.ar        1 UCN       0.0681
     10 C1          2.6194    2.9922   16.8960 C.ar        1 UCN      -0.0404
     11 C2          2.6444    1.7954   16.1579 C.ar        1 UCN      -0.0732
     12 C3          1.4389    1.1768   15.7747 C.ar        1 UCN      -0.0750
     13 C4          0.2019    1.7525   16.1287 C.ar        1 UCN      -0.0685
     14 N3          1.1100    4.6839   17.9650 N.pl3       1 UCN      -0.2376
     15 C19        -0.2314    4.8308   18.0324 C.ar        1 UCN       0.0952
     16 C18        -0.9912    5.8933   18.5870 C.ar        1 UCN       0.0979
     17 N2         -0.6205    7.0480   19.2163 N.pl3       1 UCN      -0.2292
     18 C17        -1.7711    7.7657   19.4325 C.ar        1 UCN       0.0695
     19 C12        -2.8773    7.0238   18.9936 C.ar        1 UCN      -0.0074
     20 C13        -4.1986    7.5002   19.1208 C.ar        1 UCN      -0.0696
     21 C14        -4.4172    8.7687   19.6815 C.ar        1 UCN      -0.0759
     22 C15        -3.3245    9.5469   20.1002 C.ar        1 UCN      -0.0739
     23 C16        -2.0125    9.0493   19.9811 C.ar        1 UCN      -0.0408
     24 C11        -2.3862    5.8480   18.4475 C.ar        1 UCN       0.0037
     25 C10        -3.0244    4.7541   17.8256 C.ar        1 UCN       0.0127
     26 C21         0.7504    7.4057   19.6011 C.3         1 UCN       0.2020
     27 O4          1.5869    6.2258   19.7262 O.3         1 UCN      -0.3149
     28 C25         2.0881    5.5448   18.5636 C.3         1 UCN       0.1668
     29 C24         2.7518    6.5263   17.5627 C.3         1 UCN       0.0455
     30 C23         1.8803    7.7860   17.2932 C.3         1 UCN       0.0141
     31 N4          0.7124    7.4786   16.4235 N.4         1 UCN       0.2291
     32 C28         0.7957    7.8350   14.9999 C.3         1 UCN      -0.0445
     33 C22         1.4333    8.4461   18.6331 C.3         1 UCN       0.1556
     34 O6          0.5672    9.5926   18.4384 O.3         1 UCN      -0.3686
     35 C27         1.0470   10.6962   17.6449 C.3         1 UCN       0.0373
     36 C26         0.8173    7.9116   21.0838 C.3         1 UCN      -0.0059
     37 H1         -5.9623    5.2001   16.6214 H           1 UCN       0.2154
     38 H2         -5.0017    4.4431   18.5382 H           1 UCN       0.1031
     39 H3         -5.1785    2.7437   16.6884 H           1 UCN       0.1889
     40 H4          3.4985    3.4314   17.1719 H           1 UCN       0.0539
     41 H5          3.5389    1.3702   15.9039 H           1 UCN       0.0568
     42 H6          1.4621    0.3079   15.2362 H           1 UCN       0.0516
     43 H7         -0.6505    1.2891   15.8299 H           1 UCN       0.0576
     44 H8         -4.9986    6.9491   18.8175 H           1 UCN       0.0566
     45 H9         -5.3678    9.1337   19.7722 H           1 UCN       0.0516
     46 H10        -3.4867   10.4832   20.4739 H           1 UCN       0.0561
     47 H11        -1.2567    9.6673   20.2566 H           1 UCN       0.0538
     48 H12         2.8801    4.9016   18.9653 H           1 UCN       0.0933
     49 H13         2.9778    6.0146   16.6215 H           1 UCN       0.0372
     50 H14         3.7101    6.8456   17.9893 H           1 UCN       0.0372
     51 H15         2.5429    8.4938   16.7896 H           1 UCN       0.0880
     52 H16        -0.1097    7.9510   16.8034 H           1 UCN       0.2014
     53 H17         0.5355    6.4762   16.4536 H           1 UCN       0.2014
     54 H18        -0.0655    7.4051   14.4915 H           1 UCN       0.0777
     55 H19         1.6978    7.4214   14.5395 H           1 UCN       0.0777
     56 H20         0.7658    8.9198   14.8618 H           1 UCN       0.0777
     57 H21         2.3401    8.8074   19.1302 H           1 UCN       0.0710
     58 H22         0.3664   11.5409   17.7566 H           1 UCN       0.0524
     59 H23         1.0676   10.4222   16.5912 H           1 UCN       0.0524
     60 H24         2.0375   11.0239   17.9671 H           1 UCN       0.0524
     61 H25         1.8340    7.8389   21.4802 H           1 UCN       0.0284
     62 H26         0.1577    7.3126   21.7198 H           1 UCN       0.0284
     63 H27         0.5427    8.9558   21.1889 H           1 UCN       0.0284
@<TRIPOS>BOND
     1     2     1   1
     2     2     3   1
     3     2    25   1
     4     3     4  am
     5     4     5   2
     6     4     6   1
     7     6     7  ar
     8    25     6  ar
     9     7     8   1
    10     7    15  ar
    11     8     9  ar
    12     8    13  ar
    13     9    10  ar
    14     9    14   1
    15    10    11  ar
    16    11    12  ar
    17    13    12  ar
    18    14    15   1
    19    14    28   1
    20    15    16  ar
    21    16    17   1
    22    16    24  ar
    23    17    18   1
    24    17    26   1
    25    18    19  ar
    26    18    23  ar
    27    19    20  ar
    28    19    24   1
    29    20    21  ar
    30    21    22  ar
    31    23    22  ar
    32    24    25  ar
    33    26    27   1
    34    26    33   1
    35    26    36   1
    36    27    28   1
    37    28    29   1
    38    29    30   1
    39    30    31   1
    40    33    30   1
    41    31    32   1
    42    33    34   1
    43    34    35   1
    44     1    37   1
    45     2    38   1
    46     3    39   1
    47    10    40   1
    48    11    41   1
    49    12    42   1
    50    13    43   1
    51    20    44   1
    52    21    45   1
    53    22    46   1
    54    23    47   1
    55    28    48   1
    56    29    49   1
    57    29    50   1
    58    30    51   1
    59    31    52   1
    60    31    53   1
    61    32    54   1
    62    32    55   1
    63    32    56   1
    64    33    57   1
    65    35    58   1
    66    35    59   1
    67    35    60   1
    68    36    61   1
    69    36    62   1
    70    36    63   1
@<TRIPOS>SUBSTRUCTURE
     1  UCN      2

