@<TRIPOS>MOLECULE
1nvq_ligand_008
    63    70
SMALL
GAST_HUCK
****
This file was generated by PARSER (from files_GN.cpp)

@<TRIPOS>ATOM
      1 O37        -0.9218    8.3623   21.6479 O.3         1 UCN      -0.3582
      2 C9         -0.3476    8.7259   20.3954 C.3         1 UCN       0.1708
      3 N1          1.0392    8.9529   20.5509 N.am        1 UCN      -0.2534
      4 C8          1.7907    8.0685   19.9432 C.2         1 UCN       0.1891
      5 O5          3.0084    8.1520   19.9678 O.2         1 UCN      -0.3964
      6 C7          1.0069    7.1751   19.2687 C.ar        1 UCN       0.0346
      7 C6          1.2639    6.0125   18.5010 C.ar        1 UCN      -0.0017
      8 C5          2.4184    5.2831   18.2046 C.ar        1 UCN      -0.0071
      9 C20         2.0123    4.1984   17.4149 C.ar        1 UCN       0.0681
     10 C1          2.9598    3.2640   16.9403 C.ar        1 UCN      -0.0404
     11 C2          4.3161    3.4243   17.2736 C.ar        1 UCN      -0.0732
     12 C3          4.7225    4.4993   18.0860 C.ar        1 UCN      -0.0750
     13 C4          3.7742    5.4293   18.5602 C.ar        1 UCN      -0.0685
     14 N3          0.6696    4.2384   17.2441 N.pl3       1 UCN      -0.2376
     15 C19         0.1951    5.3281   17.8861 C.ar        1 UCN       0.0952
     16 C18        -1.1458    5.7674   18.0443 C.ar        1 UCN       0.0979
     17 N2         -2.3279    5.2522   17.5987 N.pl3       1 UCN      -0.2292
     18 C17        -3.3261    6.0095   18.1588 C.ar        1 UCN       0.0695
     19 C12        -2.7584    7.0542   18.9067 C.ar        1 UCN      -0.0074
     20 C13        -3.5512    8.0202   19.5634 C.ar        1 UCN      -0.0696
     21 C14        -4.9514    7.9153   19.4940 C.ar        1 UCN      -0.0759
     22 C15        -5.5430    6.8562   18.7810 C.ar        1 UCN      -0.0739
     23 C16        -4.7372    5.9122   18.1182 C.ar        1 UCN      -0.0408
     24 C11        -1.3851    6.8899   18.8536 C.ar        1 UCN       0.0037
     25 C10        -0.3179    7.5883   19.4678 C.ar        1 UCN       0.0127
     26 C21        -2.4670    4.1077   16.6905 C.3         1 UCN       0.2020
     27 O4         -1.2680    3.8897   15.9159 O.3         1 UCN      -0.3149
     28 C25        -0.1064    3.2894   16.4976 C.3         1 UCN       0.1668
     29 C24        -0.4472    1.9808   17.2644 C.3         1 UCN       0.0455
     30 C23        -1.6825    2.1288   18.1942 C.3         1 UCN       0.0141
     31 N4         -1.3484    2.8909   19.4353 N.4         1 UCN       0.2291
     32 C28        -1.4207    2.1603   20.7156 C.3         1 UCN      -0.0445
     33 C22        -2.8724    2.7653   17.4069 C.3         1 UCN       0.1556
     34 O6         -4.0215    2.9711   18.2552 O.3         1 UCN      -0.3686
     35 C27        -4.7933    1.8206   18.6435 C.3         1 UCN       0.0373
     36 C26        -3.4339    4.4201   15.4991 C.3         1 UCN      -0.0059
     37 H1         -0.6432    9.0604   22.2810 H           1 UCN       0.2154
     38 H2         -0.8297    9.6036   19.9627 H           1 UCN       0.1031
     39 H3          1.3939    9.6967   21.0599 H           1 UCN       0.1889
     40 H4          2.6763    2.4767   16.3577 H           1 UCN       0.0539
     41 H5          5.0124    2.7593   16.9269 H           1 UCN       0.0568
     42 H6          5.7098    4.6128   18.3257 H           1 UCN       0.0516
     43 H7          4.0949    6.1849   19.1582 H           1 UCN       0.0576
     44 H8         -3.1308    8.7898   20.0819 H           1 UCN       0.0566
     45 H9         -5.5396    8.6020   19.9686 H           1 UCN       0.0516
     46 H10        -6.5619    6.7733   18.7464 H           1 UCN       0.0561
     47 H11        -5.2069    5.1510   17.6378 H           1 UCN       0.0538
     48 H12         0.4834    3.0053   15.6237 H           1 UCN       0.0933
     49 H13         0.4191    1.6329   17.8367 H           1 UCN       0.0372
     50 H14        -0.6738    1.2023   16.5273 H           1 UCN       0.0372
     51 H15        -1.9713    1.1062   18.4593 H           1 UCN       0.0880
     52 H16        -1.9828    3.6883   19.5060 H           1 UCN       0.2014
     53 H17        -0.3955    3.2502   19.3509 H           1 UCN       0.2014
     54 H18        -1.1119    2.8257   21.5224 H           1 UCN       0.0777
     55 H19        -0.7598    1.2925   20.7055 H           1 UCN       0.0777
     56 H20        -2.4451    1.8403   20.9003 H           1 UCN       0.0777
     57 H21        -3.1403    2.0548   16.6194 H           1 UCN       0.0710
     58 H22        -5.1572    1.2765   17.7695 H           1 UCN       0.0524
     59 H23        -5.6544    2.1637   19.2175 H           1 UCN       0.0524
     60 H24        -4.2135    1.1465   19.2733 H           1 UCN       0.0524
     61 H25        -3.2792    3.7298   14.6618 H           1 UCN       0.0284
     62 H26        -3.2616    5.4346   15.1255 H           1 UCN       0.0284
     63 H27        -4.4809    4.3150   15.7717 H           1 UCN       0.0284
@<TRIPOS>BOND
     1     2     1   1
     2     2     3   1
     3     2    25   1
     4     3     4  am
     5     4     5   2
     6     4     6   1
     7     6     7  ar
     8    25     6  ar
     9     7     8   1
    10     7    15  ar
    11     8     9  ar
    12     8    13  ar
    13     9    10  ar
    14     9    14   1
    15    10    11  ar
    16    11    12  ar
    17    13    12  ar
    18    14    15   1
    19    14    28   1
    20    15    16  ar
    21    16    17   1
    22    16    24  ar
    23    17    18   1
    24    17    26   1
    25    18    19  ar
    26    18    23  ar
    27    19    20  ar
    28    19    24   1
    29    20    21  ar
    30    21    22  ar
    31    23    22  ar
    32    24    25  ar
    33    26    27   1
    34    26    33   1
    35    26    36   1
    36    27    28   1
    37    28    29   1
    38    29    30   1
    39    30    31   1
    40    33    30   1
    41    31    32   1
    42    33    34   1
    43    34    35   1
    44     1    37   1
    45     2    38   1
    46     3    39   1
    47    10    40   1
    48    11    41   1
    49    12    42   1
    50    13    43   1
    51    20    44   1
    52    21    45   1
    53    22    46   1
    54    23    47   1
    55    28    48   1
    56    29    49   1
    57    29    50   1
    58    30    51   1
    59    31    52   1
    60    31    53   1
    61    32    54   1
    62    32    55   1
    63    32    56   1
    64    33    57   1
    65    35    58   1
    66    35    59   1
    67    35    60   1
    68    36    61   1
    69    36    62   1
    70    36    63   1
@<TRIPOS>SUBSTRUCTURE
     1  UCN      2

