@<TRIPOS>MOLECULE
1nvq_ligand_025
    63    70
SMALL
GAST_HUCK
****
This file was generated by PARSER (from files_GN.cpp)

@<TRIPOS>ATOM
      1 O37         3.1281    7.5377   13.2058 O.3         1 UCN      -0.3582
      2 C9          4.2249    7.1080   12.4019 C.3         1 UCN       0.1708
      3 N1          5.2502    8.0843   12.4367 N.am        1 UCN      -0.2534
      4 C8          6.3405    7.6612   13.0154 C.2         1 UCN       0.1891
      5 O5          7.3714    8.2965   12.9925 O.2         1 UCN      -0.3964
      6 C7          6.1764    6.3743   13.4303 C.ar        1 UCN       0.0346
      7 C6          6.9783    5.5044   14.1870 C.ar        1 UCN      -0.0017
      8 C5          8.1431    5.6747   14.9397 C.ar        1 UCN      -0.0071
      9 C20         8.4004    4.4366   15.5476 C.ar        1 UCN       0.0681
     10 C1          9.5057    4.2870   16.4115 C.ar        1 UCN      -0.0404
     11 C2         10.3295    5.3939   16.6860 C.ar        1 UCN      -0.0732
     12 C3         10.0539    6.6470   16.1009 C.ar        1 UCN      -0.0750
     13 C4          8.9586    6.7878   15.2240 C.ar        1 UCN      -0.0685
     14 N3          7.4304    3.5557   15.2000 N.pl3       1 UCN      -0.2376
     15 C19         6.5554    4.1740   14.3823 C.ar        1 UCN       0.0952
     16 C18         5.3190    3.7131   13.8474 C.ar        1 UCN       0.0979
     17 N2          4.6658    2.5221   13.9685 N.pl3       1 UCN      -0.2292
     18 C17         3.4681    2.6400   13.3078 C.ar        1 UCN       0.0695
     19 C12         3.3564    3.9330   12.7822 C.ar        1 UCN      -0.0074
     20 C13         2.2264    4.3385   12.0568 C.ar        1 UCN      -0.0696
     21 C14         1.1630    3.4326   11.8644 C.ar        1 UCN      -0.0759
     22 C15         1.2472    2.1336   12.3958 C.ar        1 UCN      -0.0739
     23 C16         2.3865    1.7443   13.1171 C.ar        1 UCN      -0.0408
     24 C11         4.5113    4.6228   13.1496 C.ar        1 UCN       0.0037
     25 C10         4.9214    5.9617   12.9815 C.ar        1 UCN       0.0127
     26 C21         5.1451    1.3773   14.7275 C.3         1 UCN       0.2020
     27 O4          6.5936    1.3730   14.7722 O.3         1 UCN      -0.3149
     28 C25         7.3208    2.2178   15.6791 C.3         1 UCN       0.1668
     29 C24         6.7584    2.1316   17.1244 C.3         1 UCN       0.0455
     30 C23         5.2167    2.3636   17.1776 C.3         1 UCN       0.0141
     31 N4          4.7971    3.7875   16.9955 N.4         1 UCN       0.2291
     32 C28         5.2355    4.8104   17.9594 C.3         1 UCN      -0.0445
     33 C22         4.5407    1.3516   16.1864 C.3         1 UCN       0.1556
     34 O6          3.0947    1.1870   16.1948 O.3         1 UCN      -0.3686
     35 C27         2.1672    2.2564   16.4112 C.3         1 UCN       0.0373
     36 C26         4.9273    0.0097   13.9991 C.3         1 UCN      -0.0059
     37 H1          2.5083    6.7810   13.2300 H           1 UCN       0.2154
     38 H2          3.9313    6.9031   11.3768 H           1 UCN       0.1031
     39 H3          5.1871    8.9567   12.0181 H           1 UCN       0.1889
     40 H4          9.7040    3.3895   16.8608 H           1 UCN       0.0539
     41 H5         11.1146    5.3060   17.3355 H           1 UCN       0.0568
     42 H6         10.6384    7.4534   16.3224 H           1 UCN       0.0516
     43 H7          8.7542    7.7091   14.8523 H           1 UCN       0.0576
     44 H8          2.1503    5.2719   11.6685 H           1 UCN       0.0566
     45 H9          0.3216    3.7217   11.3630 H           1 UCN       0.0516
     46 H10         0.4684    1.4839   12.2682 H           1 UCN       0.0561
     47 H11         2.3873    0.8107   13.5112 H           1 UCN       0.0538
     48 H12         8.3256    1.7913   15.6864 H           1 UCN       0.0933
     49 H13         7.2772    2.8272   17.7771 H           1 UCN       0.0372
     50 H14         6.9735    1.1476   17.5378 H           1 UCN       0.0372
     51 H15         4.8923    2.0925   18.1909 H           1 UCN       0.0880
     52 H16         3.7757    3.8039   17.0747 H           1 UCN       0.2014
     53 H17         5.0321    4.0967   16.0634 H           1 UCN       0.2014
     54 H18         4.6582    5.7256   17.7765 H           1 UCN       0.0777
     55 H19         6.2971    5.0636   17.8074 H           1 UCN       0.0777
     56 H20         5.0646    4.4778   18.9820 H           1 UCN       0.0777
     57 H21         4.8336    0.3851   16.5795 H           1 UCN       0.0710
     58 H22         1.1718    1.8829   16.1513 H           1 UCN       0.0524
     59 H23         2.3807    3.1270   15.7863 H           1 UCN       0.0524
     60 H24         2.1504    2.5391   17.4662 H           1 UCN       0.0524
     61 H25         5.6870   -0.7276   14.2645 H           1 UCN       0.0284
     62 H26         4.9657    0.1359   12.9098 H           1 UCN       0.0284
     63 H27         3.9752   -0.4536   14.2635 H           1 UCN       0.0284
@<TRIPOS>BOND
     1     2     1   1
     2     2     3   1
     3     2    25   1
     4     3     4  am
     5     4     5   2
     6     4     6   1
     7     6     7  ar
     8    25     6  ar
     9     7     8   1
    10     7    15  ar
    11     8     9  ar
    12     8    13  ar
    13     9    10  ar
    14     9    14   1
    15    10    11  ar
    16    11    12  ar
    17    13    12  ar
    18    14    15   1
    19    14    28   1
    20    15    16  ar
    21    16    17   1
    22    16    24  ar
    23    17    18   1
    24    17    26   1
    25    18    19  ar
    26    18    23  ar
    27    19    20  ar
    28    19    24   1
    29    20    21  ar
    30    21    22  ar
    31    23    22  ar
    32    24    25  ar
    33    26    27   1
    34    26    33   1
    35    26    36   1
    36    27    28   1
    37    28    29   1
    38    29    30   1
    39    30    31   1
    40    33    30   1
    41    31    32   1
    42    33    34   1
    43    34    35   1
    44     1    37   1
    45     2    38   1
    46     3    39   1
    47    10    40   1
    48    11    41   1
    49    12    42   1
    50    13    43   1
    51    20    44   1
    52    21    45   1
    53    22    46   1
    54    23    47   1
    55    28    48   1
    56    29    49   1
    57    29    50   1
    58    30    51   1
    59    31    52   1
    60    31    53   1
    61    32    54   1
    62    32    55   1
    63    32    56   1
    64    33    57   1
    65    35    58   1
    66    35    59   1
    67    35    60   1
    68    36    61   1
    69    36    62   1
    70    36    63   1
@<TRIPOS>SUBSTRUCTURE
     1  UCN      2

