@<TRIPOS>MOLECULE
1nvq_ligand_027
    63    70
SMALL
GAST_HUCK
****
This file was generated by PARSER (from files_GN.cpp)

@<TRIPOS>ATOM
      1 O37         4.5563    9.1296   13.8375 O.3         1 UCN      -0.3582
      2 C9          4.4477    8.1969   12.7757 C.3         1 UCN       0.1708
      3 N1          5.6773    8.1456   12.0852 N.am        1 UCN      -0.2534
      4 C8          6.2628    6.9773   12.1693 C.2         1 UCN       0.1891
      5 O5          7.3058    6.7657   11.5779 O.2         1 UCN      -0.3964
      6 C7          5.5054    6.1120   12.8986 C.ar        1 UCN       0.0346
      7 C6          5.6730    4.7831   13.3574 C.ar        1 UCN      -0.0017
      8 C5          6.7155    3.8463   13.2789 C.ar        1 UCN      -0.0071
      9 C20         6.3051    2.7249   14.0000 C.ar        1 UCN       0.0681
     10 C1          7.1641    1.5968   14.1167 C.ar        1 UCN      -0.0404
     11 C2          8.4301    1.6227   13.5284 C.ar        1 UCN      -0.0732
     12 C3          8.8655    2.7767   12.8450 C.ar        1 UCN      -0.0750
     13 C4          7.9982    3.8882   12.7372 C.ar        1 UCN      -0.0685
     14 N3          5.1115    2.9685   14.5558 N.pl3       1 UCN      -0.2376
     15 C19         4.6797    4.1940   14.1619 C.ar        1 UCN       0.0952
     16 C18         3.5282    4.9070   14.5455 C.ar        1 UCN       0.0979
     17 N2          2.5408    4.6391   15.4545 N.pl3       1 UCN      -0.2292
     18 C17         1.7503    5.7482   15.5313 C.ar        1 UCN       0.0695
     19 C12         2.2064    6.7055   14.6128 C.ar        1 UCN      -0.0074
     20 C13         1.5967    7.9612   14.4628 C.ar        1 UCN      -0.0696
     21 C14         0.5709    8.3205   15.3498 C.ar        1 UCN      -0.0759
     22 C15         0.1159    7.4049   16.3137 C.ar        1 UCN      -0.0739
     23 C16         0.6779    6.1131   16.3816 C.ar        1 UCN      -0.0408
     24 C11         3.3606    6.2070   14.0466 C.ar        1 UCN       0.0037
     25 C10         4.3505    6.8137   13.2501 C.ar        1 UCN       0.0127
     26 C21         2.4675    3.4324   16.2675 C.3         1 UCN       0.2020
     27 O4          3.0872    2.3095   15.5997 O.3         1 UCN      -0.3149
     28 C25         4.5103    2.1601   15.5680 C.3         1 UCN       0.1668
     29 C24         5.1896    2.3794   16.9516 C.3         1 UCN       0.0455
     30 C23         4.6917    3.6641   17.6852 C.3         1 UCN       0.0141
     31 N4          5.2718    4.9630   17.2013 N.4         1 UCN       0.2291
     32 C28         6.7263    5.0952   16.9963 C.3         1 UCN      -0.0445
     33 C22         3.1181    3.6207   17.6872 C.3         1 UCN       0.1556
     34 O6          2.3909    4.5346   18.5386 O.3         1 UCN      -0.3686
     35 C27         2.8398    5.8541   18.8605 C.3         1 UCN       0.0373
     36 C26         1.0125    2.8598   16.3789 C.3         1 UCN      -0.0059
     37 H1          4.6584    9.9977   13.3900 H           1 UCN       0.2154
     38 H2          3.6245    8.4522   12.1111 H           1 UCN       0.1031
     39 H3          6.0415    8.9048   11.6025 H           1 UCN       0.1889
     40 H4          6.8551    0.7703   14.6186 H           1 UCN       0.0539
     41 H5          9.0516    0.8134   13.6007 H           1 UCN       0.0568
     42 H6          9.8028    2.8114   12.4442 H           1 UCN       0.0516
     43 H7          8.3249    4.7232   12.2757 H           1 UCN       0.0576
     44 H8          1.9024    8.6177   13.7436 H           1 UCN       0.0566
     45 H9          0.1730    9.2568   15.3006 H           1 UCN       0.0516
     46 H10        -0.6167    7.6792   16.9703 H           1 UCN       0.0561
     47 H11         0.3448    5.4949   17.1133 H           1 UCN       0.0538
     48 H12         4.6564    1.1145   15.2906 H           1 UCN       0.0933
     49 H13         6.2700    2.3901   16.8566 H           1 UCN       0.0372
     50 H14         4.9629    1.5154   17.5709 H           1 UCN       0.0372
     51 H15         5.0204    3.5774   18.7263 H           1 UCN       0.0880
     52 H16         5.0384    5.6689   17.9065 H           1 UCN       0.2014
     53 H17         4.8045    5.2318   16.3342 H           1 UCN       0.2014
     54 H18         6.9473    6.1476   16.8108 H           1 UCN       0.0777
     55 H19         7.0514    4.5185   16.1294 H           1 UCN       0.0777
     56 H20         7.2618    4.7804   17.8910 H           1 UCN       0.0777
     57 H21         2.9056    2.6751   18.1825 H           1 UCN       0.0710
     58 H22         2.0659    6.3223   19.4761 H           1 UCN       0.0524
     59 H23         2.9883    6.4572   17.9651 H           1 UCN       0.0524
     60 H24         3.7563    5.8223   19.4455 H           1 UCN       0.0524
     61 H25         1.0138    1.7947   16.6339 H           1 UCN       0.0284
     62 H26         0.4872    2.9742   15.4289 H           1 UCN       0.0284
     63 H27         0.4319    3.3384   17.1628 H           1 UCN       0.0284
@<TRIPOS>BOND
     1     2     1   1
     2     2     3   1
     3     2    25   1
     4     3     4  am
     5     4     5   2
     6     4     6   1
     7     6     7  ar
     8    25     6  ar
     9     7     8   1
    10     7    15  ar
    11     8     9  ar
    12     8    13  ar
    13     9    10  ar
    14     9    14   1
    15    10    11  ar
    16    11    12  ar
    17    13    12  ar
    18    14    15   1
    19    14    28   1
    20    15    16  ar
    21    16    17   1
    22    16    24  ar
    23    17    18   1
    24    17    26   1
    25    18    19  ar
    26    18    23  ar
    27    19    20  ar
    28    19    24   1
    29    20    21  ar
    30    21    22  ar
    31    23    22  ar
    32    24    25  ar
    33    26    27   1
    34    26    33   1
    35    26    36   1
    36    27    28   1
    37    28    29   1
    38    29    30   1
    39    30    31   1
    40    33    30   1
    41    31    32   1
    42    33    34   1
    43    34    35   1
    44     1    37   1
    45     2    38   1
    46     3    39   1
    47    10    40   1
    48    11    41   1
    49    12    42   1
    50    13    43   1
    51    20    44   1
    52    21    45   1
    53    22    46   1
    54    23    47   1
    55    28    48   1
    56    29    49   1
    57    29    50   1
    58    30    51   1
    59    31    52   1
    60    31    53   1
    61    32    54   1
    62    32    55   1
    63    32    56   1
    64    33    57   1
    65    35    58   1
    66    35    59   1
    67    35    60   1
    68    36    61   1
    69    36    62   1
    70    36    63   1
@<TRIPOS>SUBSTRUCTURE
     1  UCN      2

