@<TRIPOS>MOLECULE
1nvq_ligand_016
    63    70
SMALL
GAST_HUCK
****
This file was generated by PARSER (from files_GN.cpp)

@<TRIPOS>ATOM
      1 O37        -3.4902    3.9609   14.3025 O.3         1 UCN      -0.3582
      2 C9         -3.0623    2.9871   15.2466 C.3         1 UCN       0.1708
      3 N1         -2.7206    1.8095   14.5413 N.am        1 UCN      -0.2534
      4 C8         -1.4552    1.4812   14.6418 C.2         1 UCN       0.1891
      5 O5         -1.0267    0.4674   14.1171 O.2         1 UCN      -0.3964
      6 C7         -0.8003    2.3799   15.4384 C.ar        1 UCN       0.0346
      7 C6          0.5492    2.5385   15.8348 C.ar        1 UCN      -0.0017
      8 C5          1.7435    1.8896   15.5087 C.ar        1 UCN      -0.0071
      9 C20         2.7657    2.5628   16.1898 C.ar        1 UCN       0.0681
     10 C1          4.1144    2.1641   16.0428 C.ar        1 UCN      -0.0404
     11 C2          4.4267    1.0855   15.1921 C.ar        1 UCN      -0.0732
     12 C3          3.4016    0.4086   14.5066 C.ar        1 UCN      -0.0750
     13 C4          2.0615    0.8050   14.6603 C.ar        1 UCN      -0.0685
     14 N3          2.2381    3.5759   16.9181 N.pl3       1 UCN      -0.2376
     15 C19         0.8980    3.5859   16.7146 C.ar        1 UCN       0.0952
     16 C18        -0.0798    4.5006   17.1831 C.ar        1 UCN       0.0979
     17 N2          0.0257    5.5986   17.9826 N.pl3       1 UCN      -0.2292
     18 C17        -1.2105    6.1920   18.0064 C.ar        1 UCN       0.0695
     19 C12        -2.1237    5.3961   17.2961 C.ar        1 UCN      -0.0074
     20 C13        -3.4914    5.7224   17.2188 C.ar        1 UCN      -0.0696
     21 C14        -3.9549    6.8970   17.8363 C.ar        1 UCN      -0.0759
     22 C15        -3.0568    7.7260   18.5282 C.ar        1 UCN      -0.0739
     23 C16        -1.7002    7.3690   18.6331 C.ar        1 UCN      -0.0408
     24 C11        -1.4023    4.3544   16.7365 C.ar        1 UCN       0.0037
     25 C10        -1.7636    3.3061   15.8623 C.ar        1 UCN       0.0127
     26 C21         1.2359    5.9955   18.7100 C.3         1 UCN       0.2020
     27 O4          2.1734    4.9102   18.8692 O.3         1 UCN      -0.3149
     28 C25         2.9775    4.4591   17.7748 C.3         1 UCN       0.1668
     29 C24         3.7039    5.6328   17.0546 C.3         1 UCN       0.0455
     30 C23         2.7576    6.8301   16.7587 C.3         1 UCN       0.0141
     31 N4          1.9748    6.5104   15.5296 N.4         1 UCN       0.2291
     32 C28         0.6649    7.1680   15.3167 C.3         1 UCN      -0.0445
     33 C22         1.9947    7.2129   18.0753 C.3         1 UCN       0.1556
     34 O6          1.0951    8.3325   17.8992 O.3         1 UCN      -0.3686
     35 C27         1.6015    9.6414   18.2131 C.3         1 UCN       0.0373
     36 C26         0.9469    6.2683   20.2207 C.3         1 UCN      -0.0059
     37 H1         -4.1094    4.5638   14.7668 H           1 UCN       0.2154
     38 H2         -3.8283    2.7729   15.9948 H           1 UCN       0.1031
     39 H3         -3.3632    1.2966   14.0233 H           1 UCN       0.1889
     40 H4          4.8677    2.6573   16.5314 H           1 UCN       0.0539
     41 H5          5.3983    0.8026   15.0681 H           1 UCN       0.0568
     42 H6          3.6346   -0.3702   13.8918 H           1 UCN       0.0516
     43 H7          1.3457    0.3113   14.1396 H           1 UCN       0.0576
     44 H8         -4.1581    5.1175   16.7451 H           1 UCN       0.0566
     45 H9         -4.9472    7.1562   17.7681 H           1 UCN       0.0516
     46 H10        -3.3964    8.5920   18.9600 H           1 UCN       0.0561
     47 H11        -1.0890    8.0162   19.1107 H           1 UCN       0.0538
     48 H12         3.7497    3.8603   18.2682 H           1 UCN       0.0933
     49 H13         4.1730    5.2781   16.1334 H           1 UCN       0.0372
     50 H14         4.5030    5.9894   17.7061 H           1 UCN       0.0372
     51 H15         3.3919    7.6799   16.4828 H           1 UCN       0.0880
     52 H16         1.8104    5.5045   15.4847 H           1 UCN       0.2014
     53 H17         2.5734    6.7532   14.7237 H           1 UCN       0.2014
     54 H18         0.4498    7.1152   14.2346 H           1 UCN       0.0777
     55 H19         0.6877    8.2352   15.6112 H           1 UCN       0.0777
     56 H20        -0.0937    6.6189   15.9039 H           1 UCN       0.0777
     57 H21         2.7707    7.5000   18.7943 H           1 UCN       0.0710
     58 H22         0.8223   10.3727   17.9862 H           1 UCN       0.0524
     59 H23         2.4882    9.8819   17.6214 H           1 UCN       0.0524
     60 H24         1.8404    9.7207   19.2734 H           1 UCN       0.0524
     61 H25         1.8841    6.3372   20.7759 H           1 UCN       0.0284
     62 H26         0.3496    5.4581   20.6506 H           1 UCN       0.0284
     63 H27         0.4362    7.2095   20.3992 H           1 UCN       0.0284
@<TRIPOS>BOND
     1     2     1   1
     2     2     3   1
     3     2    25   1
     4     3     4  am
     5     4     5   2
     6     4     6   1
     7     6     7  ar
     8    25     6  ar
     9     7     8   1
    10     7    15  ar
    11     8     9  ar
    12     8    13  ar
    13     9    10  ar
    14     9    14   1
    15    10    11  ar
    16    11    12  ar
    17    13    12  ar
    18    14    15   1
    19    14    28   1
    20    15    16  ar
    21    16    17   1
    22    16    24  ar
    23    17    18   1
    24    17    26   1
    25    18    19  ar
    26    18    23  ar
    27    19    20  ar
    28    19    24   1
    29    20    21  ar
    30    21    22  ar
    31    23    22  ar
    32    24    25  ar
    33    26    27   1
    34    26    33   1
    35    26    36   1
    36    27    28   1
    37    28    29   1
    38    29    30   1
    39    30    31   1
    40    33    30   1
    41    31    32   1
    42    33    34   1
    43    34    35   1
    44     1    37   1
    45     2    38   1
    46     3    39   1
    47    10    40   1
    48    11    41   1
    49    12    42   1
    50    13    43   1
    51    20    44   1
    52    21    45   1
    53    22    46   1
    54    23    47   1
    55    28    48   1
    56    29    49   1
    57    29    50   1
    58    30    51   1
    59    31    52   1
    60    31    53   1
    61    32    54   1
    62    32    55   1
    63    32    56   1
    64    33    57   1
    65    35    58   1
    66    35    59   1
    67    35    60   1
    68    36    61   1
    69    36    62   1
    70    36    63   1
@<TRIPOS>SUBSTRUCTURE
     1  UCN      2

