@<TRIPOS>MOLECULE
1nvq_ligand_011
    63    70
SMALL
GAST_HUCK
****
This file was generated by PARSER (from files_GN.cpp)

@<TRIPOS>ATOM
      1 O37        11.9275    8.8752   14.0320 O.3         1 UCN      -0.3582
      2 C9         11.7320    8.5994   15.4159 C.3         1 UCN       0.1708
      3 N1         11.5999    9.8190   16.1223 N.am        1 UCN      -0.2534
      4 C8         10.4490    9.9420   16.7385 C.2         1 UCN       0.1891
      5 O5         10.2047   10.9165   17.4265 O.2         1 UCN      -0.3964
      6 C7          9.6945    8.8176   16.5646 C.ar        1 UCN       0.0346
      7 C6          8.4112    8.4177   17.0133 C.ar        1 UCN      -0.0017
      8 C5          7.3776    9.0593   17.7064 C.ar        1 UCN      -0.0071
      9 C20         6.3319    8.1315   17.7981 C.ar        1 UCN       0.0681
     10 C1          5.1099    8.4794   18.4164 C.ar        1 UCN      -0.0404
     11 C2          4.9431    9.7733   18.9388 C.ar        1 UCN      -0.0732
     12 C3          5.9898   10.7096   18.8504 C.ar        1 UCN      -0.0750
     13 C4          7.2083   10.3578   18.2327 C.ar        1 UCN      -0.0685
     14 N3          6.6992    6.9686   17.2123 N.pl3       1 UCN      -0.2376
     15 C19         7.9423    7.1230   16.7100 C.ar        1 UCN       0.0952
     16 C18         8.7120    6.2256   15.9254 C.ar        1 UCN       0.0979
     17 N2          8.4576    4.9582   15.4837 N.pl3       1 UCN      -0.2292
     18 C17         9.5180    4.6001   14.6880 C.ar        1 UCN       0.0695
     19 C12        10.4536    5.6456   14.6540 C.ar        1 UCN      -0.0074
     20 C13        11.6490    5.5578   13.9108 C.ar        1 UCN      -0.0696
     21 C14        11.9255    4.3769   13.1983 C.ar        1 UCN      -0.0759
     22 C15        11.0074    3.3114   13.2214 C.ar        1 UCN      -0.0739
     23 C16         9.8074    3.4267   13.9502 C.ar        1 UCN      -0.0408
     24 C11         9.9497    6.6749   15.4326 C.ar        1 UCN       0.0037
     25 C10        10.4478    7.9589   15.7510 C.ar        1 UCN       0.0127
     26 C21         7.2757    4.1498   15.8238 C.3         1 UCN       0.2020
     27 O4          6.6692    4.5952   17.0606 O.3         1 UCN      -0.3149
     28 C25         5.8868    5.7939   17.1214 C.3         1 UCN       0.1668
     29 C24         4.8231    5.8751   15.9952 C.3         1 UCN       0.0455
     30 C23         5.3707    5.4690   14.5999 C.3         1 UCN       0.0141
     31 N4          6.1611    6.5391   13.9230 N.4         1 UCN       0.2291
     32 C28         5.4232    7.4258   13.0009 C.3         1 UCN      -0.0445
     33 C22         6.1795    4.1300   14.6871 C.3         1 UCN       0.1556
     34 O6          6.7968    3.7427   13.4378 O.3         1 UCN      -0.3686
     35 C27         5.9585    3.5157   12.2900 C.3         1 UCN       0.0373
     36 C26         7.6572    2.6833   16.2329 C.3         1 UCN      -0.0059
     37 H1         11.6125    9.7917   13.8800 H           1 UCN       0.2154
     38 H2         12.5683    8.0148   15.8036 H           1 UCN       0.1031
     39 H3         12.2874   10.5037   16.1339 H           1 UCN       0.1889
     40 H4          4.3422    7.8100   18.4794 H           1 UCN       0.0539
     41 H5          4.0582   10.0381   19.3789 H           1 UCN       0.0568
     42 H6          5.8622   11.6496   19.2309 H           1 UCN       0.0516
     43 H7          7.9362   11.0609   18.1683 H           1 UCN       0.0576
     44 H8         12.3094    6.3311   13.8691 H           1 UCN       0.0566
     45 H9         12.7891    4.2984   12.6543 H           1 UCN       0.0516
     46 H10        11.2066    2.4573   12.6967 H           1 UCN       0.0561
     47 H11         9.1582    2.6498   13.9053 H           1 UCN       0.0538
     48 H12         5.3531    5.6914   18.0704 H           1 UCN       0.0933
     49 H13         4.3916    6.8773   15.9496 H           1 UCN       0.0372
     50 H14         4.0085    5.1913   16.2544 H           1 UCN       0.0372
     51 H15         4.4841    5.2612   13.9918 H           1 UCN       0.0880
     52 H16         6.8928    6.0836   13.3746 H           1 UCN       0.2014
     53 H17         6.6140    7.1328   14.6183 H           1 UCN       0.2014
     54 H18         6.1258    8.1170   12.5386 H           1 UCN       0.0777
     55 H19         4.6657    7.9984   13.5356 H           1 UCN       0.0777
     56 H20         4.9442    6.8474   12.2104 H           1 UCN       0.0777
     57 H21         5.4559    3.3456   14.9452 H           1 UCN       0.0710
     58 H22         5.1922    2.7689   12.4965 H           1 UCN       0.0524
     59 H23         6.5815    3.1513   11.4750 H           1 UCN       0.0524
     60 H24         5.4855    4.4388   11.9658 H           1 UCN       0.0524
     61 H25         6.9192    2.2476   16.9127 H           1 UCN       0.0284
     62 H26         8.6278    2.6555   16.7327 H           1 UCN       0.0284
     63 H27         7.6903    2.0167   15.3763 H           1 UCN       0.0284
@<TRIPOS>BOND
     1     2     1   1
     2     2     3   1
     3     2    25   1
     4     3     4  am
     5     4     5   2
     6     4     6   1
     7     6     7  ar
     8    25     6  ar
     9     7     8   1
    10     7    15  ar
    11     8     9  ar
    12     8    13  ar
    13     9    10  ar
    14     9    14   1
    15    10    11  ar
    16    11    12  ar
    17    13    12  ar
    18    14    15   1
    19    14    28   1
    20    15    16  ar
    21    16    17   1
    22    16    24  ar
    23    17    18   1
    24    17    26   1
    25    18    19  ar
    26    18    23  ar
    27    19    20  ar
    28    19    24   1
    29    20    21  ar
    30    21    22  ar
    31    23    22  ar
    32    24    25  ar
    33    26    27   1
    34    26    33   1
    35    26    36   1
    36    27    28   1
    37    28    29   1
    38    29    30   1
    39    30    31   1
    40    33    30   1
    41    31    32   1
    42    33    34   1
    43    34    35   1
    44     1    37   1
    45     2    38   1
    46     3    39   1
    47    10    40   1
    48    11    41   1
    49    12    42   1
    50    13    43   1
    51    20    44   1
    52    21    45   1
    53    22    46   1
    54    23    47   1
    55    28    48   1
    56    29    49   1
    57    29    50   1
    58    30    51   1
    59    31    52   1
    60    31    53   1
    61    32    54   1
    62    32    55   1
    63    32    56   1
    64    33    57   1
    65    35    58   1
    66    35    59   1
    67    35    60   1
    68    36    61   1
    69    36    62   1
    70    36    63   1
@<TRIPOS>SUBSTRUCTURE
     1  UCN      2

