@<TRIPOS>MOLECULE
1o3f_ligand_004
    43    46
SMALL
GAST_HUCK
****
This file was generated by PARSER (from files_GN.cpp)

@<TRIPOS>ATOM
      1 C1         43.6758   -2.8587   25.9756 C.ar        1 MOL       0.0081
      2 C2         43.9138   -1.4536   25.8770 C.ar        1 MOL      -0.0716
      3 C3         43.6313   -0.5716   26.9403 C.ar        1 MOL      -0.0437
      4 C4         43.1042   -1.0998   28.1254 C.ar        1 MOL       0.0625
      5 C5         42.8754   -2.4648   28.2580 C.ar        1 MOL      -0.0269
      6 C6         43.1478   -3.3521   27.2020 C.ar        1 MOL      -0.0699
      7 C7         43.9778   -3.7282   24.9138 C.cat       1 MOL       0.2284
      8 N1         43.8975   -5.0015   24.9966 N.pl3       1 MOL      -0.2733
      9 N2         44.3846   -3.3083   23.7779 N.pl3       1 MOL      -0.2733
     10 N3         42.7479   -0.4940   29.2686 N.pl3       1 MOL      -0.2762
     11 CN4        42.3819   -2.6671   29.5393 C.2         1 MOL      -0.0577
     12 C8         42.3146   -1.4145   30.1509 C.2         1 MOL       0.0606
     13 C1'        41.8706   -1.1361   31.4596 C.ar        1 MOL       0.0381
     14 C2'        40.8737   -0.1566   31.6527 C.ar        1 MOL      -0.0591
     15 C3'        40.4086    0.1349   32.9423 C.ar        1 MOL      -0.0712
     16 C4'        40.9510   -0.5326   34.0530 C.ar        1 MOL      -0.0615
     17 C5'        41.9684   -1.5065   33.8988 C.ar        1 MOL       0.0146
     18 C6'        42.4183   -1.8059   32.5841 C.ar        1 MOL       0.1121
     19 O6'        43.4415   -2.6904   32.4114 O.3         1 MOL      -0.3267
     20 C1''       42.4988   -2.1738   35.0500 C.ar        1 MOL      -0.0215
     21 C2''       42.8466   -1.4468   36.2155 C.ar        1 MOL      -0.0570
     22 C3''       43.3664   -2.0973   37.3499 C.ar        1 MOL      -0.0632
     23 C4''       43.5620   -3.4874   37.3349 C.ar        1 MOL      -0.0635
     24 C5''       43.2207   -4.2303   36.1928 C.ar        1 MOL      -0.0632
     25 C6''       42.6872   -3.5801   35.0645 C.ar        1 MOL      -0.0570
     26 H1         44.3028   -1.0452   25.0259 H           1 MOL       0.0528
     27 H2         43.8086    0.4332   26.8519 H           1 MOL       0.0539
     28 H3         42.9538   -4.3475   27.3417 H           1 MOL       0.0531
     29 H4         44.1424   -5.5201   24.2568 H           1 MOL       0.3180
     30 H5         43.6209   -5.4325   25.7815 H           1 MOL       0.3180
     31 H6         44.4826   -2.3950   23.6136 H           1 MOL       0.3180
     32 H7         44.6208   -3.9203   23.1132 H           1 MOL       0.3180
     33 H8         42.8099    0.4590   29.4338 H           1 MOL       0.2230
     34 H9         42.1118   -3.5635   29.9464 H           1 MOL       0.0294
     35 H10        40.4687    0.3441   30.8593 H           1 MOL       0.0593
     36 H11        39.6791    0.8389   33.0731 H           1 MOL       0.0530
     37 H12        40.5859   -0.3052   34.9803 H           1 MOL       0.0593
     38 H13        43.0120   -3.5142   32.1005 H           1 MOL       0.2521
     39 H14        42.7356   -0.4305   36.2430 H           1 MOL       0.0606
     40 H15        43.6089   -1.5601   38.1823 H           1 MOL       0.0613
     41 H16        43.9393   -3.9593   38.1569 H           1 MOL       0.0603
     42 H17        43.3566   -5.2437   36.1829 H           1 MOL       0.0613
     43 H18        42.4253   -4.1457   34.2530 H           1 MOL       0.0606
@<TRIPOS>BOND
     1     1     2  ar
     2     1     6  ar
     3     1     7   1
     4     2     3  ar
     5     3     4  ar
     6     4     5  ar
     7     4    10   1
     8     5     6  ar
     9     5    11   1
    10     7     8  ar
    11     7     9  ar
    12    10    12   1
    13    11    12   2
    14    12    13   1
    15    13    14  ar
    16    13    18  ar
    17    14    15  ar
    18    15    16  ar
    19    16    17  ar
    20    17    18  ar
    21    17    20   1
    22    18    19   1
    23    20    21  ar
    24    20    25  ar
    25    21    22  ar
    26    22    23  ar
    27    23    24  ar
    28    24    25  ar
    29     2    26   1
    30     3    27   1
    31     6    28   1
    32     8    29   1
    33     8    30   1
    34     9    31   1
    35     9    32   1
    36    10    33   1
    37    11    34   1
    38    14    35   1
    39    15    36   1
    40    16    37   1
    41    19    38   1
    42    21    39   1
    43    22    40   1
    44    23    41   1
    45    24    42   1
    46    25    43   1
@<TRIPOS>SUBSTRUCTURE
     1  MOL      1

