@<TRIPOS>MOLECULE
1o3f_ligand_009
    43    46
SMALL
GAST_HUCK
****
This file was generated by PARSER (from files_GN.cpp)

@<TRIPOS>ATOM
      1 C1         43.9031   -3.5528   27.2979 C.ar        1 MOL       0.0081
      2 C2         42.6640   -4.1044   27.7377 C.ar        1 MOL      -0.0716
      3 C3         42.0873   -3.7433   28.9746 C.ar        1 MOL      -0.0437
      4 C4         42.7629   -2.8221   29.7934 C.ar        1 MOL       0.0625
      5 C5         43.9831   -2.2829   29.3927 C.ar        1 MOL      -0.0269
      6 C6         44.5635   -2.6302   28.1588 C.ar        1 MOL      -0.0699
      7 C7         44.4576   -3.9006   26.0568 C.cat       1 MOL       0.2284
      8 N1         44.2360   -5.0273   25.4944 N.pl3       1 MOL      -0.2733
      9 N2         45.2193   -3.1113   25.4024 N.pl3       1 MOL      -0.2733
     10 N3         42.4388   -2.3014   30.9906 N.pl3       1 MOL      -0.2762
     11 CN4        44.3913   -1.4253   30.4086 C.2         1 MOL      -0.0577
     12 C8         43.4028   -1.4476   31.3990 C.2         1 MOL       0.0606
     13 C1'        43.3908   -0.7106   32.6132 C.ar        1 MOL       0.0381
     14 C2'        42.3159    0.1703   32.8850 C.ar        1 MOL      -0.0591
     15 C3'        42.2727    0.9021   34.0863 C.ar        1 MOL      -0.0712
     16 C4'        43.3027    0.7675   35.0338 C.ar        1 MOL      -0.0615
     17 C5'        44.3925   -0.0992   34.7926 C.ar        1 MOL       0.0146
     18 C6'        44.4251   -0.8373   33.5796 C.ar        1 MOL       0.1121
     19 O6'        45.4235   -1.7315   33.3710 O.3         1 MOL      -0.3267
     20 C1''       45.4181   -0.2230   35.7691 C.ar        1 MOL      -0.0215
     21 C2''       46.6674    0.4203   35.5914 C.ar        1 MOL      -0.0570
     22 C3''       47.6871    0.2884   36.5559 C.ar        1 MOL      -0.0632
     23 C4''       47.4719   -0.4884   37.7094 C.ar        1 MOL      -0.0635
     24 C5''       46.2340   -1.1297   37.8993 C.ar        1 MOL      -0.0632
     25 C6''       45.2138   -0.9969   36.9363 C.ar        1 MOL      -0.0570
     26 H1         42.1495   -4.7611   27.1493 H           1 MOL       0.0528
     27 H2         41.1927   -4.1391   29.2736 H           1 MOL       0.0539
     28 H3         45.4642   -2.2170   27.9096 H           1 MOL       0.0531
     29 H4         44.6306   -5.2277   24.6659 H           1 MOL       0.3180
     30 H5         43.7049   -5.6717   25.9118 H           1 MOL       0.3180
     31 H6         45.4248   -2.2629   25.7346 H           1 MOL       0.3180
     32 H7         45.5720   -3.3792   24.5743 H           1 MOL       0.3180
     33 H8         41.6368   -2.5229   31.4873 H           1 MOL       0.2230
     34 H9         45.2432   -0.8623   30.4011 H           1 MOL       0.0294
     35 H10        41.5598    0.3039   32.2092 H           1 MOL       0.0593
     36 H11        41.4902    1.5373   34.2714 H           1 MOL       0.0530
     37 H12        43.2523    1.3154   35.8964 H           1 MOL       0.0593
     38 H13        46.2499   -1.2303   33.5044 H           1 MOL       0.2521
     39 H14        46.8439    0.9951   34.7644 H           1 MOL       0.0606
     40 H15        48.5868    0.7576   36.4206 H           1 MOL       0.0613
     41 H16        48.2118   -0.5857   38.4085 H           1 MOL       0.0603
     42 H17        46.0776   -1.6946   38.7381 H           1 MOL       0.0613
     43 H18        44.3255   -1.4793   37.0915 H           1 MOL       0.0606
@<TRIPOS>BOND
     1     1     2  ar
     2     1     6  ar
     3     1     7   1
     4     2     3  ar
     5     3     4  ar
     6     4     5  ar
     7     4    10   1
     8     5     6  ar
     9     5    11   1
    10     7     8  ar
    11     7     9  ar
    12    10    12   1
    13    11    12   2
    14    12    13   1
    15    13    14  ar
    16    13    18  ar
    17    14    15  ar
    18    15    16  ar
    19    16    17  ar
    20    17    18  ar
    21    17    20   1
    22    18    19   1
    23    20    21  ar
    24    20    25  ar
    25    21    22  ar
    26    22    23  ar
    27    23    24  ar
    28    24    25  ar
    29     2    26   1
    30     3    27   1
    31     6    28   1
    32     8    29   1
    33     8    30   1
    34     9    31   1
    35     9    32   1
    36    10    33   1
    37    11    34   1
    38    14    35   1
    39    15    36   1
    40    16    37   1
    41    19    38   1
    42    21    39   1
    43    22    40   1
    44    23    41   1
    45    24    42   1
    46    25    43   1
@<TRIPOS>SUBSTRUCTURE
     1  MOL      1

