@<TRIPOS>MOLECULE
1o3f_ligand_010
    43    46
SMALL
GAST_HUCK
****
This file was generated by PARSER (from files_GN.cpp)

@<TRIPOS>ATOM
      1 C1         43.1323   -3.6919   26.7970 C.ar        1 MOL       0.0081
      2 C2         42.3748   -4.6787   27.4988 C.ar        1 MOL      -0.0716
      3 C3         41.7719   -4.4155   28.7450 C.ar        1 MOL      -0.0437
      4 C4         41.9517   -3.1517   29.3216 C.ar        1 MOL       0.0625
      5 C5         42.7087   -2.1772   28.6742 C.ar        1 MOL      -0.0269
      6 C6         43.2863   -2.4182   27.4155 C.ar        1 MOL      -0.0699
      7 C7         43.7148   -3.9737   25.5490 C.cat       1 MOL       0.2284
      8 N1         44.1827   -3.0636   24.7821 N.pl3       1 MOL      -0.2733
      9 N2         43.8167   -5.1640   25.0935 N.pl3       1 MOL      -0.2733
     10 N3         41.5153   -2.6546   30.4897 N.pl3       1 MOL      -0.2762
     11 CN4        42.7421   -1.0724   29.5135 C.2         1 MOL      -0.0577
     12 C8         41.9893   -1.4036   30.6420 C.2         1 MOL       0.0606
     13 C1'        41.7549   -0.6002   31.7706 C.ar        1 MOL       0.0381
     14 C2'        42.8470   -0.1638   32.5497 C.ar        1 MOL      -0.0591
     15 C3'        42.6301    0.6063   33.7037 C.ar        1 MOL      -0.0712
     16 C4'        41.3240    0.9635   34.0761 C.ar        1 MOL      -0.0615
     17 C5'        40.2171    0.5536   33.2984 C.ar        1 MOL       0.0146
     18 C6'        40.4374   -0.2516   32.1518 C.ar        1 MOL       0.1121
     19 O6'        39.3782   -0.6977   31.4238 O.3         1 MOL      -0.3267
     20 C1''       38.9126    0.9682   33.6650 C.ar        1 MOL      -0.0215
     21 C2''       38.3550    0.5627   34.8997 C.ar        1 MOL      -0.0570
     22 C3''       37.0703    0.9940   35.2752 C.ar        1 MOL      -0.0632
     23 C4''       36.3381    1.8460   34.4284 C.ar        1 MOL      -0.0635
     24 C5''       36.8824    2.2532   33.1957 C.ar        1 MOL      -0.0632
     25 C6''       38.1629    1.8136   32.8115 C.ar        1 MOL      -0.0570
     26 H1         42.2292   -5.6080   27.1005 H           1 MOL       0.0528
     27 H2         41.2277   -5.1356   29.2274 H           1 MOL       0.0539
     28 H3         43.8274   -1.6698   26.9806 H           1 MOL       0.0531
     29 H4         44.5606   -3.2952   23.9567 H           1 MOL       0.3180
     30 H5         44.1417   -2.1633   25.0281 H           1 MOL       0.3180
     31 H6         43.5054   -5.8890   25.5940 H           1 MOL       0.3180
     32 H7         44.2231   -5.3197   24.2650 H           1 MOL       0.3180
     33 H8         40.9705   -3.1288   31.1353 H           1 MOL       0.2230
     34 H9         43.2186   -0.1903   29.3307 H           1 MOL       0.0294
     35 H10        43.8049   -0.4239   32.3002 H           1 MOL       0.0593
     36 H11        43.4224    0.9096   34.2736 H           1 MOL       0.0530
     37 H12        41.1859    1.5400   34.9100 H           1 MOL       0.0593
     38 H13        39.2879   -0.0534   30.6934 H           1 MOL       0.2521
     39 H14        38.8773   -0.0551   35.5250 H           1 MOL       0.0606
     40 H15        36.6716    0.6939   36.1687 H           1 MOL       0.0613
     41 H16        35.4099    2.1697   34.7080 H           1 MOL       0.0603
     42 H17        36.3487    2.8768   32.5888 H           1 MOL       0.0613
     43 H18        38.5458    2.1243   31.9147 H           1 MOL       0.0606
@<TRIPOS>BOND
     1     1     2  ar
     2     1     6  ar
     3     1     7   1
     4     2     3  ar
     5     3     4  ar
     6     4     5  ar
     7     4    10   1
     8     5     6  ar
     9     5    11   1
    10     7     8  ar
    11     7     9  ar
    12    10    12   1
    13    11    12   2
    14    12    13   1
    15    13    14  ar
    16    13    18  ar
    17    14    15  ar
    18    15    16  ar
    19    16    17  ar
    20    17    18  ar
    21    17    20   1
    22    18    19   1
    23    20    21  ar
    24    20    25  ar
    25    21    22  ar
    26    22    23  ar
    27    23    24  ar
    28    24    25  ar
    29     2    26   1
    30     3    27   1
    31     6    28   1
    32     8    29   1
    33     8    30   1
    34     9    31   1
    35     9    32   1
    36    10    33   1
    37    11    34   1
    38    14    35   1
    39    15    36   1
    40    16    37   1
    41    19    38   1
    42    21    39   1
    43    22    40   1
    44    23    41   1
    45    24    42   1
    46    25    43   1
@<TRIPOS>SUBSTRUCTURE
     1  MOL      1

