@<TRIPOS>MOLECULE
1o5b_ligand_030
    21    22
SMALL
GAST_HUCK
****
This file was generated by PARSER (from files_GN.cpp)

@<TRIPOS>ATOM
      1 C0          2.5522    9.1781   21.5603 C.cat       1 ESI       0.2505
      2 C1          2.8721   10.1789   22.4639 C.2         1 ESI       0.0861
      3 N1          3.0399    8.0018   21.6582 N.pl3       1 ESI      -0.2704
      4 N2          1.7494    9.3928   20.5906 N.pl3       1 ESI      -0.2704
      5 S2          2.2888   11.8026   22.4190 S.3         1 ESI      -0.0309
      6 C3          3.1171   12.3526   23.8181 C.ar        1 ESI       0.0403
      7 C4          3.8584   11.2759   24.3333 C.ar        1 ESI      -0.0155
      8 C5          3.7184   10.0897   23.5845 C.2         1 ESI      -0.0536
      9 C6          3.1203   13.6211   24.4187 C.ar        1 ESI      -0.0472
     10 C7          3.8973   13.8103   25.5777 C.ar        1 ESI      -0.0674
     11 C8          4.6495   12.7429   26.1125 C.ar        1 ESI      -0.0610
     12 C9          4.6359   11.4728   25.4968 C.ar        1 ESI       0.0037
     13 I9          5.7551    9.9622   26.3290 I           1 ESI      -0.0547
     14 H1          2.8078    7.3441   21.0340 H           1 ESI       0.3182
     15 H2          3.6316    7.7907   22.3504 H           1 ESI       0.3182
     16 H3          1.3576   10.2347   20.4822 H           1 ESI       0.3182
     17 H4          1.5340    8.7039   19.9951 H           1 ESI       0.3182
     18 H5          4.1980    9.2246   23.8401 H           1 ESI       0.0425
     19 H6          2.5725   14.3878   24.0235 H           1 ESI       0.0593
     20 H7          3.9165   14.7255   26.0328 H           1 ESI       0.0573
     21 H8          5.2091   12.8929   26.9544 H           1 ESI       0.0587
@<TRIPOS>BOND
     1     1     2   1
     2     1     3  ar
     3     1     4  ar
     4     2     5   1
     5     2     8   2
     6     5     6   1
     7     6     7  ar
     8     6     9  ar
     9     7     8   1
    10     7    12  ar
    11     9    10  ar
    12    10    11  ar
    13    11    12  ar
    14    12    13   1
    15     3    14   1
    16     3    15   1
    17     4    16   1
    18     4    17   1
    19     8    18   1
    20     9    19   1
    21    10    20   1
    22    11    21   1
@<TRIPOS>SUBSTRUCTURE
     1  ESI      1

