@<TRIPOS>MOLECULE
1o5b_ligand_017
    21    22
SMALL
GAST_HUCK
****
This file was generated by PARSER (from files_GN.cpp)

@<TRIPOS>ATOM
      1 C0          9.2798    7.2494   22.2551 C.cat       1 ESI       0.2505
      2 C1         10.6054    7.6587   22.2720 C.2         1 ESI       0.0861
      3 N1          8.8908    6.2425   22.9388 N.pl3       1 ESI      -0.2704
      4 N2          8.3963    7.8566   21.5601 N.pl3       1 ESI      -0.2704
      5 S2         11.9084    6.8684   23.0848 S.3         1 ESI      -0.0309
      6 C3         13.1407    7.9637   22.6066 C.ar        1 ESI       0.0403
      7 C4         12.5509    8.9543   21.8042 C.ar        1 ESI      -0.0155
      8 C5         11.1637    8.7772   21.6267 C.2         1 ESI      -0.0536
      9 C6         14.5124    7.9618   22.9075 C.ar        1 ESI      -0.0472
     10 C7         15.3134    8.9942   22.3835 C.ar        1 ESI      -0.0674
     11 C8         14.7418    9.9990   21.5742 C.ar        1 ESI      -0.0610
     12 C9         13.3618    9.9852   21.2779 C.ar        1 ESI       0.0037
     13 I9         12.5946   11.4749   20.0861 I           1 ESI      -0.0547
     14 H1          7.9929    5.9804   22.9195 H           1 ESI       0.3182
     15 H2          9.4992    5.7664   23.4649 H           1 ESI       0.3182
     16 H3          8.6327    8.6004   21.0456 H           1 ESI       0.3182
     17 H4          7.5073    7.5593   21.5498 H           1 ESI       0.3182
     18 H5         10.6018    9.4194   21.0672 H           1 ESI       0.0425
     19 H6         14.9191    7.2324   23.4956 H           1 ESI       0.0593
     20 H7         16.3153    9.0158   22.5907 H           1 ESI       0.0573
     21 H8         15.3343   10.7440   21.2010 H           1 ESI       0.0587
@<TRIPOS>BOND
     1     1     2   1
     2     1     3  ar
     3     1     4  ar
     4     2     5   1
     5     2     8   2
     6     5     6   1
     7     6     7  ar
     8     6     9  ar
     9     7     8   1
    10     7    12  ar
    11     9    10  ar
    12    10    11  ar
    13    11    12  ar
    14    12    13   1
    15     3    14   1
    16     3    15   1
    17     4    16   1
    18     4    17   1
    19     8    18   1
    20     9    19   1
    21    10    20   1
    22    11    21   1
@<TRIPOS>SUBSTRUCTURE
     1  ESI      1

