@<TRIPOS>MOLECULE
1o5b_ligand_024
    21    22
SMALL
GAST_HUCK
****
This file was generated by PARSER (from files_GN.cpp)

@<TRIPOS>ATOM
      1 C0         11.5351    9.8433   20.7175 C.cat       1 ESI       0.2505
      2 C1         10.1943   10.0646   21.0089 C.2         1 ESI       0.0861
      3 N1         12.2912    9.2323   21.5485 N.pl3       1 ESI      -0.2704
      4 N2         12.0719   10.2192   19.6192 N.pl3       1 ESI      -0.2704
      5 S2          9.3909    9.5915   22.4594 S.3         1 ESI      -0.0309
      6 C3          7.8333   10.1787   22.0391 C.ar        1 ESI       0.0403
      7 C4          7.9247   10.7511   20.7593 C.ar        1 ESI      -0.0155
      8 C5          9.2208   10.6899   20.2069 C.2         1 ESI      -0.0536
      9 C6          6.6276   10.1423   22.7574 C.ar        1 ESI      -0.0472
     10 C7          5.4788   10.7020   22.1676 C.ar        1 ESI      -0.0674
     11 C8          5.5477   11.2787   20.8835 C.ar        1 ESI      -0.0610
     12 C9          6.7666   11.3081   20.1705 C.ar        1 ESI       0.0037
     13 I9          6.8035   12.1638   18.3015 I           1 ESI      -0.0547
     14 H1         13.1902    9.0811   21.3415 H           1 ESI       0.3182
     15 H2         11.9515    8.9346   22.3696 H           1 ESI       0.3182
     16 H3         11.5690   10.6664   18.9719 H           1 ESI       0.3182
     17 H4         12.9759   10.0423   19.4562 H           1 ESI       0.3182
     18 H5          9.4317   11.0738   19.2863 H           1 ESI       0.0425
     19 H6          6.5846    9.7187   23.6864 H           1 ESI       0.0593
     20 H7          4.5915   10.6923   22.6755 H           1 ESI       0.0573
     21 H8          4.7062   11.6828   20.4673 H           1 ESI       0.0587
@<TRIPOS>BOND
     1     1     2   1
     2     1     3  ar
     3     1     4  ar
     4     2     5   1
     5     2     8   2
     6     5     6   1
     7     6     7  ar
     8     6     9  ar
     9     7     8   1
    10     7    12  ar
    11     9    10  ar
    12    10    11  ar
    13    11    12  ar
    14    12    13   1
    15     3    14   1
    16     3    15   1
    17     4    16   1
    18     4    17   1
    19     8    18   1
    20     9    19   1
    21    10    20   1
    22    11    21   1
@<TRIPOS>SUBSTRUCTURE
     1  ESI      1

