@<TRIPOS>MOLECULE
1o5b_ligand_009
    21    22
SMALL
GAST_HUCK
****
This file was generated by PARSER (from files_GN.cpp)

@<TRIPOS>ATOM
      1 C0         14.2474    8.0409   21.6739 C.cat       1 ESI       0.2505
      2 C1         12.8797    8.0592   21.9026 C.2         1 ESI       0.0861
      3 N1         14.9542    7.0007   21.9047 N.pl3       1 ESI      -0.2704
      4 N2         14.8546    9.0694   21.2229 N.pl3       1 ESI      -0.2704
      5 S2         11.8140    9.3700   21.5481 S.3         1 ESI      -0.0309
      6 C3         10.3746    8.6194   22.1066 C.ar        1 ESI       0.0403
      7 C4         10.7125    7.3400   22.5782 C.ar        1 ESI      -0.0155
      8 C5         12.0851    7.0410   22.4601 C.2         1 ESI      -0.0536
      9 C6          9.0573    9.1039   22.1339 C.ar        1 ESI      -0.0472
     10 C7          8.0493    8.2731   22.6612 C.ar        1 ESI      -0.0674
     11 C8          8.3679    6.9860   23.1436 C.ar        1 ESI      -0.0610
     12 C9          9.6961    6.5106   23.1026 C.ar        1 ESI       0.0037
     13 I9         10.0901    4.6235   23.8164 I           1 ESI      -0.0547
     14 H1         15.8748    7.0143   21.7389 H           1 ESI       0.3182
     15 H2         14.5567    6.2217   22.2321 H           1 ESI       0.3182
     16 H3         14.3803    9.8548   21.0413 H           1 ESI       0.3182
     17 H4         15.7784    9.0408   21.0732 H           1 ESI       0.3182
     18 H5         12.4745    6.1469   22.7636 H           1 ESI       0.0425
     19 H6          8.8366   10.0368   21.7800 H           1 ESI       0.0593
     20 H7          7.0825    8.6040   22.6948 H           1 ESI       0.0573
     21 H8          7.6289    6.3926   23.5255 H           1 ESI       0.0587
@<TRIPOS>BOND
     1     1     2   1
     2     1     3  ar
     3     1     4  ar
     4     2     5   1
     5     2     8   2
     6     5     6   1
     7     6     7  ar
     8     6     9  ar
     9     7     8   1
    10     7    12  ar
    11     9    10  ar
    12    10    11  ar
    13    11    12  ar
    14    12    13   1
    15     3    14   1
    16     3    15   1
    17     4    16   1
    18     4    17   1
    19     8    18   1
    20     9    19   1
    21    10    20   1
    22    11    21   1
@<TRIPOS>SUBSTRUCTURE
     1  ESI      1

