@<TRIPOS>MOLECULE
1o5b_ligand_004
    21    22
SMALL
GAST_HUCK
****
This file was generated by PARSER (from files_GN.cpp)

@<TRIPOS>ATOM
      1 C0          9.1380    2.5417   22.7738 C.cat       1 ESI       0.2505
      2 C1          9.1447    3.6384   23.6220 C.2         1 ESI       0.0861
      3 N1          9.6668    2.5954   21.6126 N.pl3       1 ESI      -0.2704
      4 N2          8.6045    1.4322   23.1152 N.pl3       1 ESI      -0.2704
      5 S2          9.7480    5.2120   23.2468 S.3         1 ESI      -0.0309
      6 C3          9.3957    5.9302   24.7654 C.ar        1 ESI       0.0403
      7 C4          8.8024    4.9512   25.5786 C.ar        1 ESI      -0.0155
      8 C5          8.6671    3.7006   24.9434 C.2         1 ESI      -0.0536
      9 C6          9.6161    7.2424   25.2107 C.ar        1 ESI      -0.0472
     10 C7          9.2276    7.5790   26.5215 C.ar        1 ESI      -0.0674
     11 C8          8.6277    6.6125   27.3552 C.ar        1 ESI      -0.0610
     12 C9          8.4137    5.2968   26.8919 C.ar        1 ESI       0.0037
     13 I9          7.5587    3.9321   28.1669 I           1 ESI      -0.0547
     14 H1          9.6492    1.8441   21.0543 H           1 ESI       0.3182
     15 H2         10.0756    3.3809   21.3144 H           1 ESI       0.3182
     16 H3          8.2009    1.3397   23.9541 H           1 ESI       0.3182
     17 H4          8.6116    0.7049   22.5263 H           1 ESI       0.3182
     18 H5          8.2513    2.8932   25.4121 H           1 ESI       0.0425
     19 H6         10.0460    7.9364   24.5966 H           1 ESI       0.0593
     20 H7          9.3849    8.5261   26.8707 H           1 ESI       0.0573
     21 H8          8.3634    6.8643   28.3100 H           1 ESI       0.0587
@<TRIPOS>BOND
     1     1     2   1
     2     1     3  ar
     3     1     4  ar
     4     2     5   1
     5     2     8   2
     6     5     6   1
     7     6     7  ar
     8     6     9  ar
     9     7     8   1
    10     7    12  ar
    11     9    10  ar
    12    10    11  ar
    13    11    12  ar
    14    12    13   1
    15     3    14   1
    16     3    15   1
    17     4    16   1
    18     4    17   1
    19     8    18   1
    20     9    19   1
    21    10    20   1
    22    11    21   1
@<TRIPOS>SUBSTRUCTURE
     1  ESI      1

