@<TRIPOS>MOLECULE
1o5b_ligand_011
    21    22
SMALL
GAST_HUCK
****
This file was generated by PARSER (from files_GN.cpp)

@<TRIPOS>ATOM
      1 C0         13.2016   10.6151   20.1659 C.cat       1 ESI       0.2505
      2 C1         13.5183   10.3630   21.4923 C.2         1 ESI       0.0861
      3 N1         12.0352   10.3737   19.7030 N.pl3       1 ESI      -0.2704
      4 N2         14.0644   11.1019   19.3596 N.pl3       1 ESI      -0.2704
      5 S2         15.0207   10.7327   22.2563 S.3         1 ESI      -0.0309
      6 C3         14.6054   10.1418   23.8136 C.ar        1 ESI       0.0403
      7 C4         13.2924    9.6465   23.7534 C.ar        1 ESI      -0.0155
      8 C5         12.7038    9.7754   22.4787 C.2         1 ESI      -0.0536
      9 C6         15.3657   10.1106   24.9927 C.ar        1 ESI      -0.0472
     10 C7         14.7841    9.5564   26.1494 C.ar        1 ESI      -0.0674
     11 C8         13.4696    9.0462   26.1101 C.ar        1 ESI      -0.0610
     12 C9         12.7159    9.0895   24.9174 C.ar        1 ESI       0.0037
     13 I9         10.8091    8.3222   24.9359 I           1 ESI      -0.0547
     14 H1         11.8265   10.5641   18.8110 H           1 ESI       0.3182
     15 H2         11.3740   10.0175   20.2596 H           1 ESI       0.3182
     16 H3         14.9305   11.2935   19.6564 H           1 ESI       0.3182
     17 H4         13.8401   11.2633   18.4653 H           1 ESI       0.3182
     18 H5         11.7521    9.4592   22.2847 H           1 ESI       0.0425
     19 H6         16.3195   10.4769   25.0093 H           1 ESI       0.0593
     20 H7         15.3196    9.5177   27.0194 H           1 ESI       0.0573
     21 H8         13.0610    8.6396   26.9547 H           1 ESI       0.0587
@<TRIPOS>BOND
     1     1     2   1
     2     1     3  ar
     3     1     4  ar
     4     2     5   1
     5     2     8   2
     6     5     6   1
     7     6     7  ar
     8     6     9  ar
     9     7     8   1
    10     7    12  ar
    11     9    10  ar
    12    10    11  ar
    13    11    12  ar
    14    12    13   1
    15     3    14   1
    16     3    15   1
    17     4    16   1
    18     4    17   1
    19     8    18   1
    20     9    19   1
    21    10    20   1
    22    11    21   1
@<TRIPOS>SUBSTRUCTURE
     1  ESI      1

