@<TRIPOS>MOLECULE
1o5b_ligand_007
    21    22
SMALL
GAST_HUCK
****
This file was generated by PARSER (from files_GN.cpp)

@<TRIPOS>ATOM
      1 C0          8.2281   -0.7932   25.8623 C.cat       1 ESI       0.2505
      2 C1          8.5372    0.5365   25.6276 C.2         1 ESI       0.0861
      3 N1          7.6998   -1.1639   26.9637 N.pl3       1 ESI      -0.2704
      4 N2          8.4605   -1.7044   24.9978 N.pl3       1 ESI      -0.2704
      5 S2          8.3651    1.8367   26.7504 S.3         1 ESI      -0.0309
      6 C3          8.9470    3.0760   25.7170 C.ar        1 ESI       0.0403
      7 C4          9.2802    2.4869   24.4872 C.ar        1 ESI      -0.0155
      8 C5          9.0569    1.0967   24.4479 C.2         1 ESI      -0.0536
      9 C6          9.0942    4.4503   25.9568 C.ar        1 ESI      -0.0472
     10 C7          9.5931    5.2605   24.9184 C.ar        1 ESI      -0.0674
     11 C8          9.9306    4.6910   23.6721 C.ar        1 ESI      -0.0610
     12 C9          9.7792    3.3053   23.4508 C.ar        1 ESI       0.0037
     13 I9         10.2857    2.5177   21.6233 I           1 ESI      -0.0547
     14 H1          7.5013   -2.0661   27.1027 H           1 ESI       0.3182
     15 H2          7.5185   -0.5422   27.6365 H           1 ESI       0.3182
     16 H3          8.8477   -1.4867   24.1753 H           1 ESI       0.3182
     17 H4          8.2728   -2.6009   25.1959 H           1 ESI       0.3182
     18 H5          9.2528    0.5351   23.6175 H           1 ESI       0.0425
     19 H6          8.8410    4.8527   26.8615 H           1 ESI       0.0593
     20 H7          9.7074    6.2649   25.0680 H           1 ESI       0.0573
     21 H8         10.2860    5.2897   22.9241 H           1 ESI       0.0587
@<TRIPOS>BOND
     1     1     2   1
     2     1     3  ar
     3     1     4  ar
     4     2     5   1
     5     2     8   2
     6     5     6   1
     7     6     7  ar
     8     6     9  ar
     9     7     8   1
    10     7    12  ar
    11     9    10  ar
    12    10    11  ar
    13    11    12  ar
    14    12    13   1
    15     3    14   1
    16     3    15   1
    17     4    16   1
    18     4    17   1
    19     8    18   1
    20     9    19   1
    21    10    20   1
    22    11    21   1
@<TRIPOS>SUBSTRUCTURE
     1  ESI      1

