@<TRIPOS>MOLECULE
1o5b_ligand_001
    21    22
SMALL
GAST_HUCK
****
This file was generated by PARSER (from files_GN.cpp)

@<TRIPOS>ATOM
      1 C0          6.3958   -1.6793   26.7165 C.cat       1 ESI       0.2505
      2 C1          7.3490   -0.8866   26.0931 C.2         1 ESI       0.0861
      3 N1          5.5437   -1.1936   27.5346 N.pl3       1 ESI      -0.2704
      4 N2          6.3385   -2.9393   26.5175 N.pl3       1 ESI      -0.2704
      5 S2          8.5303   -1.4183   24.9541 S.3         1 ESI      -0.0309
      6 C3          9.2679    0.1102   24.6963 C.ar        1 ESI       0.0403
      7 C4          8.6010    1.0508   25.4978 C.ar        1 ESI      -0.0155
      8 C5          7.5468    0.4967   26.2534 C.2         1 ESI      -0.0536
      9 C6         10.3363    0.4665   23.8602 C.ar        1 ESI      -0.0472
     10 C7         10.7417    1.8128   23.8227 C.ar        1 ESI      -0.0674
     11 C8         10.0920    2.7709   24.6284 C.ar        1 ESI      -0.0610
     12 C9          9.0215    2.4003   25.4690 C.ar        1 ESI       0.0037
     13 I9          8.1366    3.8393   26.6406 I           1 ESI      -0.0547
     14 H1          4.9170   -1.7501   27.9513 H           1 ESI       0.3182
     15 H2          5.5659   -0.2825   27.7429 H           1 ESI       0.3182
     16 H3          6.9667   -3.3601   25.9675 H           1 ESI       0.3182
     17 H4          5.6933   -3.4533   26.9628 H           1 ESI       0.3182
     18 H5          6.9707    1.0640   26.8757 H           1 ESI       0.0425
     19 H6         10.8037   -0.2364   23.2871 H           1 ESI       0.0593
     20 H7         11.5132    2.0983   23.2139 H           1 ESI       0.0573
     21 H8         10.4007    3.7450   24.6019 H           1 ESI       0.0587
@<TRIPOS>BOND
     1     1     2   1
     2     1     3  ar
     3     1     4  ar
     4     2     5   1
     5     2     8   2
     6     5     6   1
     7     6     7  ar
     8     6     9  ar
     9     7     8   1
    10     7    12  ar
    11     9    10  ar
    12    10    11  ar
    13    11    12  ar
    14    12    13   1
    15     3    14   1
    16     3    15   1
    17     4    16   1
    18     4    17   1
    19     8    18   1
    20     9    19   1
    21    10    20   1
    22    11    21   1
@<TRIPOS>SUBSTRUCTURE
     1  ESI      1

