@<TRIPOS>MOLECULE
1o5b_ligand_006
    21    22
SMALL
GAST_HUCK
****
This file was generated by PARSER (from files_GN.cpp)

@<TRIPOS>ATOM
      1 C0          9.3316    1.8083   23.6912 C.cat       1 ESI       0.2505
      2 C1          8.6040    2.5434   24.6148 C.2         1 ESI       0.0861
      3 N1         10.0590    0.8187   24.0441 N.pl3       1 ESI      -0.2704
      4 N2          9.3025    2.0945   22.4470 N.pl3       1 ESI      -0.2704
      5 S2          8.6238    2.3206   26.3254 S.3         1 ESI      -0.0309
      6 C3          7.5076    3.5682   26.7071 C.ar        1 ESI       0.0403
      7 C4          7.1067    4.1689   25.5020 C.ar        1 ESI      -0.0155
      8 C5          7.7135    3.6037   24.3623 C.2         1 ESI      -0.0536
      9 C6          7.0190    3.9907   27.9536 C.ar        1 ESI      -0.0472
     10 C7          6.0895    5.0487   27.9842 C.ar        1 ESI      -0.0674
     11 C8          5.6702    5.6630   26.7853 C.ar        1 ESI      -0.0610
     12 C9          6.1764    5.2315   25.5406 C.ar        1 ESI       0.0037
     13 I9          5.5284    6.1739   23.8326 I           1 ESI      -0.0547
     14 H1         10.5404    0.3366   23.4021 H           1 ESI       0.3182
     15 H2         10.1126    0.5668   24.9432 H           1 ESI       0.3182
     16 H3          8.7868    2.8125   22.1414 H           1 ESI       0.3182
     17 H4          9.7995    1.5899   21.8357 H           1 ESI       0.3182
     18 H5          7.5149    3.9390   23.4180 H           1 ESI       0.0425
     19 H6          7.3306    3.5405   28.8165 H           1 ESI       0.0593
     20 H7          5.7165    5.3729   28.8794 H           1 ESI       0.0573
     21 H8          4.9943    6.4285   26.8194 H           1 ESI       0.0587
@<TRIPOS>BOND
     1     1     2   1
     2     1     3  ar
     3     1     4  ar
     4     2     5   1
     5     2     8   2
     6     5     6   1
     7     6     7  ar
     8     6     9  ar
     9     7     8   1
    10     7    12  ar
    11     9    10  ar
    12    10    11  ar
    13    11    12  ar
    14    12    13   1
    15     3    14   1
    16     3    15   1
    17     4    16   1
    18     4    17   1
    19     8    18   1
    20     9    19   1
    21    10    20   1
    22    11    21   1
@<TRIPOS>SUBSTRUCTURE
     1  ESI      1

