@<TRIPOS>MOLECULE
1o5b_ligand_012
    21    22
SMALL
GAST_HUCK
****
This file was generated by PARSER (from files_GN.cpp)

@<TRIPOS>ATOM
      1 C0          2.2537    8.4690   23.4037 C.cat       1 ESI       0.2505
      2 C1          3.1739    7.7358   24.1328 C.2         1 ESI       0.0861
      3 N1          2.2033    8.4035   22.1289 N.pl3       1 ESI      -0.2704
      4 N2          1.4070    9.2472   23.9631 N.pl3       1 ESI      -0.2704
      5 S2          4.3446    6.6510   23.4732 S.3         1 ESI      -0.0309
      6 C3          5.0373    6.1746   24.9679 C.ar        1 ESI       0.0403
      7 C4          4.3645    6.8538   25.9967 C.ar        1 ESI      -0.0155
      8 C5          3.3462    7.7098   25.5277 C.2         1 ESI      -0.0536
      9 C6          6.0825    5.2740   25.2171 C.ar        1 ESI      -0.0472
     10 C7          6.4685    5.0534   26.5538 C.ar        1 ESI      -0.0674
     11 C8          5.8025    5.7205   27.6054 C.ar        1 ESI      -0.0610
     12 C9          4.7508    6.6227   27.3355 C.ar        1 ESI       0.0037
     13 I9          3.8144    7.5439   28.9143 I           1 ESI      -0.0547
     14 H1          1.5623    8.9114   21.6687 H           1 ESI       0.3182
     15 H2          2.7935    7.8521   21.6547 H           1 ESI       0.3182
     16 H3          1.3925    9.3413   24.8943 H           1 ESI       0.3182
     17 H4          0.7904    9.7134   23.4358 H           1 ESI       0.3182
     18 H5          2.7701    8.2666   26.1613 H           1 ESI       0.0425
     19 H6          6.5559    4.7953   24.4468 H           1 ESI       0.0593
     20 H7          7.2300    4.4037   26.7633 H           1 ESI       0.0573
     21 H8          6.0857    5.5462   28.5712 H           1 ESI       0.0587
@<TRIPOS>BOND
     1     1     2   1
     2     1     3  ar
     3     1     4  ar
     4     2     5   1
     5     2     8   2
     6     5     6   1
     7     6     7  ar
     8     6     9  ar
     9     7     8   1
    10     7    12  ar
    11     9    10  ar
    12    10    11  ar
    13    11    12  ar
    14    12    13   1
    15     3    14   1
    16     3    15   1
    17     4    16   1
    18     4    17   1
    19     8    18   1
    20     9    19   1
    21    10    20   1
    22    11    21   1
@<TRIPOS>SUBSTRUCTURE
     1  ESI      1

