@<TRIPOS>MOLECULE
1o5b_ligand_014
    21    22
SMALL
GAST_HUCK
****
This file was generated by PARSER (from files_GN.cpp)

@<TRIPOS>ATOM
      1 C0         15.6541    9.0478   23.1089 C.cat       1 ESI       0.2505
      2 C1         14.9492    9.6132   24.1587 C.2         1 ESI       0.0861
      3 N1         15.5450    7.8069   22.8243 N.pl3       1 ESI      -0.2704
      4 N2         16.4502    9.7342   22.3833 N.pl3       1 ESI      -0.2704
      5 S2         13.8810    8.7743   25.2231 S.3         1 ESI      -0.0309
      6 C3         13.4695   10.1249   26.1990 C.ar        1 ESI       0.0403
      7 C4         14.1571   11.2444   25.7008 C.ar        1 ESI      -0.0155
      8 C5         14.9659   10.9542   24.5831 C.2         1 ESI      -0.0536
      9 C6         12.6227   10.2007   27.3153 C.ar        1 ESI      -0.0472
     10 C7         12.4609   11.4478   27.9488 C.ar        1 ESI      -0.0674
     11 C8         13.1368   12.5868   27.4624 C.ar        1 ESI      -0.0610
     12 C9         13.9877   12.4937   26.3399 C.ar        1 ESI       0.0037
     13 I9         14.9419   14.1931   25.6863 I           1 ESI      -0.0547
     14 H1         16.0390    7.4471   22.1158 H           1 ESI       0.3182
     15 H2         14.9784    7.2553   23.3223 H           1 ESI       0.3182
     16 H3         16.5747   10.6479   22.5429 H           1 ESI       0.3182
     17 H4         16.9141    9.3197   21.6847 H           1 ESI       0.3182
     18 H5         15.5277   11.6674   24.1146 H           1 ESI       0.0425
     19 H6         12.1390    9.3706   27.6618 H           1 ESI       0.0593
     20 H7         11.8512   11.5274   28.7655 H           1 ESI       0.0573
     21 H8         13.0051   13.4877   27.9274 H           1 ESI       0.0587
@<TRIPOS>BOND
     1     1     2   1
     2     1     3  ar
     3     1     4  ar
     4     2     5   1
     5     2     8   2
     6     5     6   1
     7     6     7  ar
     8     6     9  ar
     9     7     8   1
    10     7    12  ar
    11     9    10  ar
    12    10    11  ar
    13    11    12  ar
    14    12    13   1
    15     3    14   1
    16     3    15   1
    17     4    16   1
    18     4    17   1
    19     8    18   1
    20     9    19   1
    21    10    20   1
    22    11    21   1
@<TRIPOS>SUBSTRUCTURE
     1  ESI      1

