@<TRIPOS>MOLECULE
1o5b_ligand_013
    21    22
SMALL
GAST_HUCK
****
This file was generated by PARSER (from files_GN.cpp)

@<TRIPOS>ATOM
      1 C0          6.9568   11.2192   18.9800 C.cat       1 ESI       0.2505
      2 C1          7.6328   10.7302   20.0864 C.2         1 ESI       0.0861
      3 N1          7.5627   11.4996   17.8897 N.pl3       1 ESI      -0.2704
      4 N2          5.6949   11.4114   19.0084 N.pl3       1 ESI      -0.2704
      5 S2          6.9139   10.2431   21.5777 S.3         1 ESI      -0.0309
      6 C3          8.3692    9.7907   22.3680 C.ar        1 ESI       0.0403
      7 C4          9.4321   10.0220   21.4793 C.ar        1 ESI      -0.0155
      8 C5          9.0178   10.5350   20.2336 C.2         1 ESI      -0.0536
      9 C6          8.5697    9.2794   23.6598 C.ar        1 ESI      -0.0472
     10 C7          9.8871    8.9991   24.0699 C.ar        1 ESI      -0.0674
     11 C8         10.9697    9.2281   23.1944 C.ar        1 ESI      -0.0610
     12 C9         10.7514    9.7367   21.8958 C.ar        1 ESI       0.0037
     13 I9         12.3729   10.0422   20.6688 I           1 ESI      -0.0547
     14 H1          7.0819   11.8272   17.1558 H           1 ESI       0.3182
     15 H2          8.4865   11.3764   17.8172 H           1 ESI       0.3182
     16 H3          5.2066   11.2256   19.7842 H           1 ESI       0.3182
     17 H4          5.2522   11.7403   18.2535 H           1 ESI       0.3182
     18 H5          9.6811   10.7535   19.4907 H           1 ESI       0.0425
     19 H6          7.7792    9.1161   24.2860 H           1 ESI       0.0593
     20 H7         10.0591    8.6284   25.0072 H           1 ESI       0.0573
     21 H8         11.9206    9.0224   23.5057 H           1 ESI       0.0587
@<TRIPOS>BOND
     1     1     2   1
     2     1     3  ar
     3     1     4  ar
     4     2     5   1
     5     2     8   2
     6     5     6   1
     7     6     7  ar
     8     6     9  ar
     9     7     8   1
    10     7    12  ar
    11     9    10  ar
    12    10    11  ar
    13    11    12  ar
    14    12    13   1
    15     3    14   1
    16     3    15   1
    17     4    16   1
    18     4    17   1
    19     8    18   1
    20     9    19   1
    21    10    20   1
    22    11    21   1
@<TRIPOS>SUBSTRUCTURE
     1  ESI      1

