@<TRIPOS>MOLECULE
1o5b_ligand_029
    21    22
SMALL
GAST_HUCK
****
This file was generated by PARSER (from files_GN.cpp)

@<TRIPOS>ATOM
      1 C0         12.8971    9.4754   22.5955 C.cat       1 ESI       0.2505
      2 C1         12.3422    8.2774   23.0189 C.2         1 ESI       0.0861
      3 N1         13.7901    9.5160   21.6824 N.pl3       1 ESI      -0.2704
      4 N2         12.5351   10.5892   23.1049 N.pl3       1 ESI      -0.2704
      5 S2         12.8020    6.7041   22.4806 S.3         1 ESI      -0.0309
      6 C3         11.6850    5.8242   23.4435 C.ar        1 ESI       0.0403
      7 C4         10.9410    6.7506   24.1927 C.ar        1 ESI      -0.0155
      8 C5         11.3087    8.0906   23.9560 C.2         1 ESI      -0.0536
      9 C6         11.4732    4.4396   23.5403 C.ar        1 ESI      -0.0472
     10 C7         10.4713    3.9755   24.4150 C.ar        1 ESI      -0.0674
     11 C8          9.7091    4.8895   25.1729 C.ar        1 ESI      -0.0610
     12 C9          9.9398    6.2780   25.0701 C.ar        1 ESI       0.0037
     13 I9          8.7978    7.5539   26.2075 I           1 ESI      -0.0547
     14 H1         14.1494   10.3375   21.4124 H           1 ESI       0.3182
     15 H2         14.0882    8.7284   21.2759 H           1 ESI       0.3182
     16 H3         11.8864   10.6094   23.7786 H           1 ESI       0.3182
     17 H4         12.9193   11.3895   22.8093 H           1 ESI       0.3182
     18 H5         10.8510    8.8716   24.4294 H           1 ESI       0.0425
     19 H6         12.0322    3.7858   22.9888 H           1 ESI       0.0593
     20 H7         10.2953    2.9722   24.5010 H           1 ESI       0.0573
     21 H8          8.9838    4.5418   25.8032 H           1 ESI       0.0587
@<TRIPOS>BOND
     1     1     2   1
     2     1     3  ar
     3     1     4  ar
     4     2     5   1
     5     2     8   2
     6     5     6   1
     7     6     7  ar
     8     6     9  ar
     9     7     8   1
    10     7    12  ar
    11     9    10  ar
    12    10    11  ar
    13    11    12  ar
    14    12    13   1
    15     3    14   1
    16     3    15   1
    17     4    16   1
    18     4    17   1
    19     8    18   1
    20     9    19   1
    21    10    20   1
    22    11    21   1
@<TRIPOS>SUBSTRUCTURE
     1  ESI      1

