@<TRIPOS>MOLECULE
1o5b_ligand_026
    21    22
SMALL
GAST_HUCK
****
This file was generated by PARSER (from files_GN.cpp)

@<TRIPOS>ATOM
      1 C0         13.5842    7.7319   21.7371 C.cat       1 ESI       0.2505
      2 C1         12.2710    8.1739   21.7846 C.2         1 ESI       0.0861
      3 N1         13.8764    6.5158   21.9974 N.pl3       1 ESI      -0.2704
      4 N2         14.5508    8.5068   21.4256 N.pl3       1 ESI      -0.2704
      5 S2         10.9058    7.2443   22.2870 S.3         1 ESI      -0.0309
      6 C3          9.7237    8.4645   22.0347 C.ar        1 ESI       0.0403
      7 C4         10.3855    9.6109   21.5644 C.ar        1 ESI      -0.0155
      8 C5         11.7775    9.4423   21.4315 C.2         1 ESI      -0.0536
      9 C6          8.3331    8.4260   22.2234 C.ar        1 ESI      -0.0472
     10 C7          7.5860    9.5856   21.9380 C.ar        1 ESI      -0.0674
     11 C8          8.2327   10.7508   21.4748 C.ar        1 ESI      -0.0610
     12 C9          9.6302   10.7711   21.2817 C.ar        1 ESI       0.0037
     13 I9         10.5086   12.4986   20.5960 I           1 ESI      -0.0547
     14 H1         14.7659    6.2279   21.9665 H           1 ESI       0.3182
     15 H2         13.2004    5.9081   22.2177 H           1 ESI       0.3182
     16 H3         14.3912    9.4068   21.2255 H           1 ESI       0.3182
     17 H4         15.4261    8.1756   21.3912 H           1 ESI       0.3182
     18 H5         12.3903   10.1885   21.0939 H           1 ESI       0.0425
     19 H6          7.8741    7.5758   22.5574 H           1 ESI       0.0593
     20 H7          6.5732    9.5820   22.0684 H           1 ESI       0.0573
     21 H8          7.6805   11.5887   21.2770 H           1 ESI       0.0587
@<TRIPOS>BOND
     1     1     2   1
     2     1     3  ar
     3     1     4  ar
     4     2     5   1
     5     2     8   2
     6     5     6   1
     7     6     7  ar
     8     6     9  ar
     9     7     8   1
    10     7    12  ar
    11     9    10  ar
    12    10    11  ar
    13    11    12  ar
    14    12    13   1
    15     3    14   1
    16     3    15   1
    17     4    16   1
    18     4    17   1
    19     8    18   1
    20     9    19   1
    21    10    20   1
    22    11    21   1
@<TRIPOS>SUBSTRUCTURE
     1  ESI      1

