@<TRIPOS>MOLECULE
1o5b_ligand_019
    21    22
SMALL
GAST_HUCK
****
This file was generated by PARSER (from files_GN.cpp)

@<TRIPOS>ATOM
      1 C0         14.2322    7.9076   22.8402 C.cat       1 ESI       0.2505
      2 C1         13.6006    8.4890   23.9236 C.2         1 ESI       0.0861
      3 N1         13.5629    7.3315   21.9179 N.pl3       1 ESI      -0.2704
      4 N2         15.5019    7.9258   22.7030 N.pl3       1 ESI      -0.2704
      5 S2         11.9027    8.4769   24.2276 S.3         1 ESI      -0.0309
      6 C3         11.9488    9.4015   25.6693 C.ar        1 ESI       0.0403
      7 C4         13.2865    9.7366   25.9272 C.ar        1 ESI      -0.0155
      8 C5         14.1827    9.2332   24.9666 C.2         1 ESI      -0.0536
      9 C6         10.8953    9.8076   26.5066 C.ar        1 ESI      -0.0472
     10 C7         11.2090   10.5762   27.6456 C.ar        1 ESI      -0.0674
     11 C8         12.5497   10.9255   27.9265 C.ar        1 ESI      -0.0610
     12 C9         13.5935   10.5093   27.0707 C.ar        1 ESI       0.0037
     13 I9         15.5185   11.0579   27.5305 I           1 ESI      -0.0547
     14 H1         14.0041    6.9380   21.1923 H           1 ESI       0.3182
     15 H2         12.6291    7.2930   21.9632 H           1 ESI       0.3182
     16 H3         16.0448    8.3104   23.3615 H           1 ESI       0.3182
     17 H4         15.8992    7.5559   21.9430 H           1 ESI       0.3182
     18 H5         15.1880    9.3982   25.0186 H           1 ESI       0.0425
     19 H6          9.9291    9.5611   26.2933 H           1 ESI       0.0593
     20 H7         10.4612   10.8811   28.2728 H           1 ESI       0.0573
     21 H8         12.7587   11.4801   28.7571 H           1 ESI       0.0587
@<TRIPOS>BOND
     1     1     2   1
     2     1     3  ar
     3     1     4  ar
     4     2     5   1
     5     2     8   2
     6     5     6   1
     7     6     7  ar
     8     6     9  ar
     9     7     8   1
    10     7    12  ar
    11     9    10  ar
    12    10    11  ar
    13    11    12  ar
    14    12    13   1
    15     3    14   1
    16     3    15   1
    17     4    16   1
    18     4    17   1
    19     8    18   1
    20     9    19   1
    21    10    20   1
    22    11    21   1
@<TRIPOS>SUBSTRUCTURE
     1  ESI      1

