@<TRIPOS>MOLECULE
1o5b_ligand_016
    21    22
SMALL
GAST_HUCK
****
This file was generated by PARSER (from files_GN.cpp)

@<TRIPOS>ATOM
      1 C0          8.9987    0.9663   25.9358 C.cat       1 ESI       0.2505
      2 C1          8.4378    2.2303   26.0364 C.2         1 ESI       0.0861
      3 N1          8.8716    0.1084   26.8741 N.pl3       1 ESI      -0.2704
      4 N2          9.6576    0.6048   24.9053 N.pl3       1 ESI      -0.2704
      5 S2          7.6415    2.8780   27.4242 S.3         1 ESI      -0.0309
      6 C3          7.2650    4.4085   26.7463 C.ar        1 ESI       0.0403
      7 C4          7.7743    4.4383   25.4376 C.ar        1 ESI      -0.0155
      8 C5          8.4153    3.2413   25.0590 C.2         1 ESI      -0.0536
      9 C6          6.5834    5.4963   27.3125 C.ar        1 ESI      -0.0472
     10 C7          6.4174    6.6584   26.5352 C.ar        1 ESI      -0.0674
     11 C8          6.9272    6.7142   25.2204 C.ar        1 ESI      -0.0610
     12 C9          7.6048    5.6082   24.6632 C.ar        1 ESI       0.0037
     13 I9          8.3274    5.7622   22.7455 I           1 ESI      -0.0547
     14 H1          9.2732   -0.7334   26.7983 H           1 ESI       0.3182
     15 H2          8.3725    0.3104   27.6393 H           1 ESI       0.3182
     16 H3          9.7749    1.1912   24.1877 H           1 ESI       0.3182
     17 H4         10.0193   -0.2559   24.8560 H           1 ESI       0.3182
     18 H5          8.8326    3.1173   24.1343 H           1 ESI       0.0425
     19 H6          6.2165    5.4458   28.2651 H           1 ESI       0.0593
     20 H7          5.9258    7.4660   26.9251 H           1 ESI       0.0573
     21 H8          6.8047    7.5649   24.6683 H           1 ESI       0.0587
@<TRIPOS>BOND
     1     1     2   1
     2     1     3  ar
     3     1     4  ar
     4     2     5   1
     5     2     8   2
     6     5     6   1
     7     6     7  ar
     8     6     9  ar
     9     7     8   1
    10     7    12  ar
    11     9    10  ar
    12    10    11  ar
    13    11    12  ar
    14    12    13   1
    15     3    14   1
    16     3    15   1
    17     4    16   1
    18     4    17   1
    19     8    18   1
    20     9    19   1
    21    10    20   1
    22    11    21   1
@<TRIPOS>SUBSTRUCTURE
     1  ESI      1

