@<TRIPOS>MOLECULE
1o5b_ligand_018
    21    22
SMALL
GAST_HUCK
****
This file was generated by PARSER (from files_GN.cpp)

@<TRIPOS>ATOM
      1 C0          2.8333   10.5551   21.5881 C.cat       1 ESI       0.2505
      2 C1          4.1812   10.7396   21.3269 C.2         1 ESI       0.0861
      3 N1          2.4141    9.6822   22.4209 N.pl3       1 ESI      -0.2704
      4 N2          1.9387   11.2425   20.9897 N.pl3       1 ESI      -0.2704
      5 S2          4.8430   11.8805   20.2144 S.3         1 ESI      -0.0309
      6 C3          6.4866   11.4302   20.4189 C.ar        1 ESI       0.0403
      7 C4          6.5355   10.3852   21.3568 C.ar        1 ESI      -0.0155
      8 C5          5.2684   10.0208   21.8568 C.2         1 ESI      -0.0536
      9 C6          7.6389   11.9337   19.7955 C.ar        1 ESI      -0.0472
     10 C7          8.8821   11.3595   20.1239 C.ar        1 ESI      -0.0674
     11 C8          8.9543   10.3055   21.0590 C.ar        1 ESI      -0.0610
     12 C9          7.7864    9.8128   21.6804 C.ar        1 ESI       0.0037
     13 I9          7.9628    8.2620   23.0178 I           1 ESI      -0.0547
     14 H1          1.4940    9.5911   22.5662 H           1 ESI       0.3182
     15 H2          3.0153    9.1402   22.8885 H           1 ESI       0.3182
     16 H3          2.1787   11.8999   20.3699 H           1 ESI       0.3182
     17 H4          1.0353   11.0680   21.1568 H           1 ESI       0.3182
     18 H5          5.1463    9.2677   22.5360 H           1 ESI       0.0425
     19 H6          7.5754   12.6927   19.1143 H           1 ESI       0.0593
     20 H7          9.7352   11.7063   19.6801 H           1 ESI       0.0573
     21 H8          9.8619    9.8937   21.2846 H           1 ESI       0.0587
@<TRIPOS>BOND
     1     1     2   1
     2     1     3  ar
     3     1     4  ar
     4     2     5   1
     5     2     8   2
     6     5     6   1
     7     6     7  ar
     8     6     9  ar
     9     7     8   1
    10     7    12  ar
    11     9    10  ar
    12    10    11  ar
    13    11    12  ar
    14    12    13   1
    15     3    14   1
    16     3    15   1
    17     4    16   1
    18     4    17   1
    19     8    18   1
    20     9    19   1
    21    10    20   1
    22    11    21   1
@<TRIPOS>SUBSTRUCTURE
     1  ESI      1

