@<TRIPOS>MOLECULE
1os0_ligand_035
    65    67
SMALL
GAST_HUCK
****
This file was generated by PARSER (from files_GN.cpp)

@<TRIPOS>ATOM
      1 N          34.9788   41.7811   -3.0463 N.4         1 MOL       0.2351
      2 CA         36.1035   42.2117   -3.8892 C.3         1 MOL       0.0466
      3 P          35.8096   41.8640   -5.5123 P.3         1 MOL       0.0403
      4 O1P        36.3402   42.9876   -6.2518 O.co2       1 MOL      -0.6153
      5 O2P        36.5566   40.7061   -5.9603 O.co2       1 MOL      -0.6153
      6 CB         37.4689   41.6840   -3.3205 C.3         1 MOL       0.0407
      7 CG         37.4531   40.2881   -2.7967 C.ar        1 MOL      -0.0360
      8 CD1        37.8555   39.1932   -3.5949 C.ar        1 MOL      -0.0601
      9 CD2        37.0124   40.0248   -1.4725 C.ar        1 MOL      -0.0601
     10 CE1        37.7692   37.8705   -3.1119 C.ar        1 MOL      -0.0686
     11 CE2        36.9283   38.7072   -0.9848 C.ar        1 MOL      -0.0686
     12 CZ         37.2969   37.6264   -1.8089 C.ar        1 MOL      -0.0687
     13 CM         34.1869   41.7721   -5.9308 C.3         1 MOL       0.0402
     14 CA         33.7018   41.4601   -7.3962 C.3         1 MOL       0.0742
     15 CB         34.3919   42.3132   -8.5194 C.3         1 MOL       0.0021
     16 CG         33.4648   42.9373   -9.5045 C.ar        1 MOL      -0.0405
     17 CD1        32.5759   43.9579   -9.0751 C.ar        1 MOL      -0.0602
     18 CD2        33.5049   42.6217  -10.8838 C.ar        1 MOL      -0.0602
     19 CE1        31.7437   44.6297   -9.9889 C.ar        1 MOL      -0.0686
     20 CE2        32.6730   43.2968  -11.8032 C.ar        1 MOL      -0.0686
     21 CZ         31.7931   44.2976  -11.3511 C.ar        1 MOL      -0.0687
     22 C          33.6761   40.0194   -7.6991 C.2         1 MOL       0.1844
     23 O          32.5969   39.4385   -7.8159 O.2         1 MOL      -0.3964
     24 N          34.8079   39.3323   -7.8063 N.am        1 MOL      -0.2692
     25 CA         34.9839   37.9172   -7.9240 C.3         1 MOL       0.1038
     26 C          36.3972   37.6379   -7.6020 C.2         1 MOL       0.0621
     27 O          37.3633   37.7863   -8.5316 O.co2       1 MOL      -0.5664
     28 CB         34.5274   37.3934   -9.3286 C.3         1 MOL       0.0159
     29 CG         35.2268   36.1747   -9.8345 C.ar        1 MOL      -0.0392
     30 CD1        35.9501   36.2093  -11.0564 C.ar        1 MOL      -0.0602
     31 CD2        35.2044   34.9623   -9.1039 C.ar        1 MOL      -0.0602
     32 CE1        36.6537   35.0806  -11.5181 C.ar        1 MOL      -0.0686
     33 CE2        35.9106   33.8278   -9.5610 C.ar        1 MOL      -0.0686
     34 CZ         36.6337   33.8858  -10.7680 C.ar        1 MOL      -0.0687
     35 OXT        36.7731   37.4115   -6.3134 O.co2       1 MOL      -0.5664
     36 H1         35.1993   41.9798   -2.0602 H           1 MOL       0.2014
     37 H2         34.8430   40.7723   -3.1768 H           1 MOL       0.2014
     38 H3         34.1361   42.3158   -3.3034 H           1 MOL       0.2014
     39 H4         36.1257   43.2991   -3.8085 H           1 MOL       0.1089
     40 H5         37.7649   42.3428   -2.4987 H           1 MOL       0.0499
     41 H6         38.2558   41.7963   -4.0737 H           1 MOL       0.0499
     42 H7         38.2085   39.3420   -4.5436 H           1 MOL       0.0557
     43 H8         36.7394   40.7886   -0.8576 H           1 MOL       0.0557
     44 H9         38.0428   37.0854   -3.7069 H           1 MOL       0.0599
     45 H10        36.5854   38.5307   -0.0371 H           1 MOL       0.0599
     46 H11        37.2260   36.6679   -1.4573 H           1 MOL       0.0559
     47 H12        33.7483   42.7323   -5.6418 H           1 MOL       0.0496
     48 H13        33.7386   41.0191   -5.2792 H           1 MOL       0.0496
     49 H14        32.6438   41.7753   -7.3743 H           1 MOL       0.0576
     50 H15        35.1413   41.7124   -9.0421 H           1 MOL       0.0454
     51 H16        34.9458   43.1484   -8.0764 H           1 MOL       0.0454
     52 H17        32.5438   44.2264   -8.0880 H           1 MOL       0.0557
     53 H18        34.1492   41.9032  -11.2352 H           1 MOL       0.0557
     54 H19        31.1107   45.3591   -9.6605 H           1 MOL       0.0599
     55 H20        32.7114   43.0583  -12.7976 H           1 MOL       0.0599
     56 H21        31.1901   44.7870  -12.0178 H           1 MOL       0.0559
     57 H22        35.6219   39.8571   -7.7299 H           1 MOL       0.1876
     58 H23        34.3701   37.4213   -7.1592 H           1 MOL       0.0749
     59 H24        34.6510   38.2051  -10.0552 H           1 MOL       0.0467
     60 H25        33.4570   37.1716   -9.2974 H           1 MOL       0.0467
     61 H26        35.9921   37.0651  -11.6092 H           1 MOL       0.0557
     62 H27        34.6969   34.9022   -8.2213 H           1 MOL       0.0557
     63 H28        37.1805   35.1214  -12.3925 H           1 MOL       0.0599
     64 H29        35.8986   32.9619   -9.0181 H           1 MOL       0.0599
     65 H30        37.1498   33.0663  -11.0988 H           1 MOL       0.0559
@<TRIPOS>BOND
     1    24    25   1
     2    25    28   1
     3    25    26   1
     4    26    27  ar
     5    26    35  ar
     6    28    29   1
     7    29    30  ar
     8    29    31  ar
     9    31    33  ar
    10    33    34  ar
    11    32    34  ar
    12    30    32  ar
    13     2     1   1
    14     3     2   1
    15     2     6   1
    16     3     4  ar
    17     3     5  ar
    18    13     3   1
    19     6     7   1
    20     7     8  ar
    21     7     9  ar
    22     8    10  ar
    23     9    11  ar
    24    10    12  ar
    25    11    12  ar
    26    14    13   1
    27    14    15   1
    28    22    14   1
    29    15    16   1
    30    16    17  ar
    31    16    18  ar
    32    17    19  ar
    33    18    20  ar
    34    19    21  ar
    35    20    21  ar
    36    22    23   2
    37    22    24  am
    38     1    36   1
    39     1    37   1
    40     1    38   1
    41     2    39   1
    42     6    40   1
    43     6    41   1
    44     8    42   1
    45     9    43   1
    46    10    44   1
    47    11    45   1
    48    12    46   1
    49    13    47   1
    50    13    48   1
    51    14    49   1
    52    15    50   1
    53    15    51   1
    54    17    52   1
    55    18    53   1
    56    19    54   1
    57    20    55   1
    58    21    56   1
    59    24    57   1
    60    25    58   1
    61    28    59   1
    62    28    60   1
    63    30    61   1
    64    31    62   1
    65    32    63   1
    66    33    64   1
    67    34    65   1
@<TRIPOS>SUBSTRUCTURE
     1  MOL      2

