@<TRIPOS>MOLECULE
1os0_ligand_059
    65    67
SMALL
GAST_HUCK
****
This file was generated by PARSER (from files_GN.cpp)

@<TRIPOS>ATOM
      1 N          47.1301   39.6840   -1.6502 N.4         1 MOL       0.2351
      2 CA         46.3083   38.6517   -2.3130 C.3         1 MOL       0.0466
      3 P          44.8678   39.3426   -2.8226 P.3         1 MOL       0.0403
      4 O1P        44.1478   39.7358   -1.6383 O.co2       1 MOL      -0.6153
      5 O2P        45.1423   40.5839   -3.5011 O.co2       1 MOL      -0.6153
      6 CB         46.1244   37.3616   -1.4328 C.3         1 MOL       0.0407
      7 CG         46.9474   37.3206   -0.1888 C.ar        1 MOL      -0.0360
      8 CD1        48.2290   36.7222   -0.1847 C.ar        1 MOL      -0.0601
      9 CD2        46.4885   37.9497    0.9935 C.ar        1 MOL      -0.0601
     10 CE1        49.0339   36.7555    0.9689 C.ar        1 MOL      -0.0686
     11 CE2        47.2894   37.9773    2.1491 C.ar        1 MOL      -0.0686
     12 CZ         48.5641   37.3827    2.1364 C.ar        1 MOL      -0.0687
     13 CM         43.9618   38.3680   -3.8449 C.3         1 MOL       0.0402
     14 CA         42.5858   37.8421   -3.3073 C.3         1 MOL       0.0742
     15 CB         41.4986   38.9709   -3.2095 C.3         1 MOL       0.0021
     16 CG         40.1209   38.5391   -2.8341 C.ar        1 MOL      -0.0405
     17 CD1        39.8976   37.7335   -1.6910 C.ar        1 MOL      -0.0602
     18 CD2        38.9988   38.9602   -3.5894 C.ar        1 MOL      -0.0602
     19 CE1        38.5954   37.3475   -1.3225 C.ar        1 MOL      -0.0686
     20 CE2        37.6952   38.5822   -3.2160 C.ar        1 MOL      -0.0686
     21 CZ         37.4930   37.7742   -2.0830 C.ar        1 MOL      -0.0687
     22 C          42.1367   36.7126   -4.1267 C.2         1 MOL       0.1844
     23 O          42.0831   35.5990   -3.6191 O.2         1 MOL      -0.3964
     24 N          41.8114   36.8958   -5.4011 N.am        1 MOL      -0.2692
     25 CA         41.3848   35.9064   -6.3574 C.3         1 MOL       0.1038
     26 C          42.3909   35.8022   -7.4423 C.2         1 MOL       0.0621
     27 O          42.2944   34.8023   -8.3489 O.co2       1 MOL      -0.5664
     28 CB         39.9617   36.2802   -6.8988 C.3         1 MOL       0.0159
     29 CG         38.8239   35.6036   -6.2043 C.ar        1 MOL      -0.0392
     30 CD1        37.8337   34.9100   -6.9448 C.ar        1 MOL      -0.0602
     31 CD2        38.6815   35.6626   -4.7967 C.ar        1 MOL      -0.0602
     32 CE1        36.7454   34.2949   -6.2990 C.ar        1 MOL      -0.0686
     33 CE2        37.5970   35.0461   -4.1480 C.ar        1 MOL      -0.0686
     34 CZ         36.6282   34.3592   -4.8991 C.ar        1 MOL      -0.0687
     35 OXT        43.4819   36.6017   -7.4969 O.co2       1 MOL      -0.5664
     36 H1         48.0406   39.2841   -1.4057 H           1 MOL       0.2014
     37 H2         46.6644   40.0090   -0.8004 H           1 MOL       0.2014
     38 H3         47.2766   40.4724   -2.2796 H           1 MOL       0.2014
     39 H4         46.8603   38.3751   -3.2160 H           1 MOL       0.1089
     40 H5         46.3698   36.4897   -2.0470 H           1 MOL       0.0499
     41 H6         45.0794   37.2208   -1.1407 H           1 MOL       0.0499
     42 H7         48.5954   36.2785   -1.0300 H           1 MOL       0.0557
     43 H8         45.5727   38.4075    1.0138 H           1 MOL       0.0557
     44 H9         49.9599   36.3232    0.9590 H           1 MOL       0.0599
     45 H10        46.9478   38.4323    2.9989 H           1 MOL       0.0599
     46 H11        49.1510   37.4113    2.9720 H           1 MOL       0.0559
     47 H12        44.5942   37.5131   -4.0984 H           1 MOL       0.0496
     48 H13        43.7903   38.9080   -4.7809 H           1 MOL       0.0496
     49 H14        42.7621   37.4714   -2.2907 H           1 MOL       0.0576
     50 H15        41.4781   39.5149   -4.1585 H           1 MOL       0.0454
     51 H16        41.7970   39.6935   -2.4507 H           1 MOL       0.0454
     52 H17        40.6815   37.4134   -1.1192 H           1 MOL       0.0557
     53 H18        39.1195   39.5537   -4.4140 H           1 MOL       0.0557
     54 H19        38.4493   36.7606   -0.4977 H           1 MOL       0.0599
     55 H20        36.8952   38.9018   -3.7661 H           1 MOL       0.0599
     56 H21        36.5480   37.4927   -1.8117 H           1 MOL       0.0559
     57 H22        41.8665   37.8064   -5.7336 H           1 MOL       0.1876
     58 H23        41.3402   34.9153   -5.8964 H           1 MOL       0.0749
     59 H24        39.9094   36.0551   -7.9685 H           1 MOL       0.0467
     60 H25        39.8081   37.3605   -6.8210 H           1 MOL       0.0467
     61 H26        37.8915   34.8582   -7.9653 H           1 MOL       0.0557
     62 H27        39.3701   36.1532   -4.2287 H           1 MOL       0.0557
     63 H28        36.0366   33.8043   -6.8486 H           1 MOL       0.0599
     64 H29        37.5091   35.0994   -3.1301 H           1 MOL       0.0599
     65 H30        35.8363   33.9153   -4.4296 H           1 MOL       0.0559
@<TRIPOS>BOND
     1    24    25   1
     2    25    28   1
     3    25    26   1
     4    26    27  ar
     5    26    35  ar
     6    28    29   1
     7    29    30  ar
     8    29    31  ar
     9    31    33  ar
    10    33    34  ar
    11    32    34  ar
    12    30    32  ar
    13     2     1   1
    14     3     2   1
    15     2     6   1
    16     3     4  ar
    17     3     5  ar
    18    13     3   1
    19     6     7   1
    20     7     8  ar
    21     7     9  ar
    22     8    10  ar
    23     9    11  ar
    24    10    12  ar
    25    11    12  ar
    26    14    13   1
    27    14    15   1
    28    22    14   1
    29    15    16   1
    30    16    17  ar
    31    16    18  ar
    32    17    19  ar
    33    18    20  ar
    34    19    21  ar
    35    20    21  ar
    36    22    23   2
    37    22    24  am
    38     1    36   1
    39     1    37   1
    40     1    38   1
    41     2    39   1
    42     6    40   1
    43     6    41   1
    44     8    42   1
    45     9    43   1
    46    10    44   1
    47    11    45   1
    48    12    46   1
    49    13    47   1
    50    13    48   1
    51    14    49   1
    52    15    50   1
    53    15    51   1
    54    17    52   1
    55    18    53   1
    56    19    54   1
    57    20    55   1
    58    21    56   1
    59    24    57   1
    60    25    58   1
    61    28    59   1
    62    28    60   1
    63    30    61   1
    64    31    62   1
    65    32    63   1
    66    33    64   1
    67    34    65   1
@<TRIPOS>SUBSTRUCTURE
     1  MOL      2

