@<TRIPOS>MOLECULE
1os0_ligand_048
    65    67
SMALL
GAST_HUCK
****
This file was generated by PARSER (from files_GN.cpp)

@<TRIPOS>ATOM
      1 N          33.7758   42.4910   -6.2318 N.4         1 MOL       0.2351
      2 CA         34.3080   42.2054   -7.5842 C.3         1 MOL       0.0466
      3 P          33.2940   42.7866   -8.8038 P.3         1 MOL       0.0403
      4 O1P        32.0829   43.3273   -8.2252 O.co2       1 MOL      -0.6153
      5 O2P        33.9048   43.9639   -9.3615 O.co2       1 MOL      -0.6153
      6 CB         34.8130   40.7233   -7.6813 C.3         1 MOL       0.0407
      7 CG         33.8133   39.6524   -7.4052 C.ar        1 MOL      -0.0360
      8 CD1        33.5449   39.2448   -6.0744 C.ar        1 MOL      -0.0601
      9 CD2        33.1640   38.9577   -8.4590 C.ar        1 MOL      -0.0601
     10 CE1        32.6039   38.2305   -5.7986 C.ar        1 MOL      -0.0686
     11 CE2        32.2280   37.9363   -8.1848 C.ar        1 MOL      -0.0686
     12 CZ         31.9307   37.5896   -6.8554 C.ar        1 MOL      -0.0687
     13 CM         32.7917   41.7888  -10.0549 C.3         1 MOL       0.0402
     14 CA         32.4649   42.4442  -11.4519 C.3         1 MOL       0.0742
     15 CB         33.7381   42.5281  -12.3704 C.3         1 MOL       0.0021
     16 CG         33.5575   43.2555  -13.6609 C.ar        1 MOL      -0.0405
     17 CD1        34.0171   44.5878  -13.8190 C.ar        1 MOL      -0.0602
     18 CD2        32.9504   42.6204  -14.7711 C.ar        1 MOL      -0.0602
     19 CE1        33.8662   45.2635  -15.0470 C.ar        1 MOL      -0.0686
     20 CE2        32.7790   43.3017  -15.9924 C.ar        1 MOL      -0.0686
     21 CZ         33.2401   44.6222  -16.1313 C.ar        1 MOL      -0.0687
     22 C          31.4016   41.7002  -12.1301 C.2         1 MOL       0.1844
     23 O          31.5346   40.4905  -12.2855 O.2         1 MOL      -0.3964
     24 N          30.3660   42.3446  -12.6645 N.am        1 MOL      -0.2692
     25 CA         29.3445   41.7736  -13.4997 C.3         1 MOL       0.1038
     26 C          28.8546   42.8538  -14.3836 C.2         1 MOL       0.0621
     27 O          29.1871   42.8674  -15.6946 O.co2       1 MOL      -0.5664
     28 CB         28.1824   41.1469  -12.6675 C.3         1 MOL       0.0159
     29 CG         28.5501   39.8704  -11.9964 C.ar        1 MOL      -0.0392
     30 CD1        28.7427   38.6982  -12.7674 C.ar        1 MOL      -0.0602
     31 CD2        28.7058   39.7870  -10.5919 C.ar        1 MOL      -0.0602
     32 CE1        29.1089   37.4828  -12.1547 C.ar        1 MOL      -0.0686
     33 CE2        29.0709   38.5762   -9.9775 C.ar        1 MOL      -0.0686
     34 CZ         29.2784   37.4234  -10.7568 C.ar        1 MOL      -0.0687
     35 OXT        28.2119   43.9301  -13.8779 O.co2       1 MOL      -0.5664
     36 H1         34.5395   42.4335   -5.5535 H           1 MOL       0.2014
     37 H2         33.0580   41.8109   -5.9687 H           1 MOL       0.2014
     38 H3         33.3673   43.4328   -6.1842 H           1 MOL       0.2014
     39 H4         35.2114   42.8146   -7.6426 H           1 MOL       0.1089
     40 H5         35.6291   40.6026   -6.9640 H           1 MOL       0.0499
     41 H6         35.2731   40.5706   -8.6610 H           1 MOL       0.0499
     42 H7         34.0383   39.6763   -5.2942 H           1 MOL       0.0557
     43 H8         33.3630   39.2057   -9.4390 H           1 MOL       0.0557
     44 H9         32.4092   37.9620   -4.8330 H           1 MOL       0.0599
     45 H10        31.7656   37.4446   -8.9553 H           1 MOL       0.0599
     46 H11        31.2446   36.8581   -6.6589 H           1 MOL       0.0559
     47 H12        31.9208   41.2589   -9.6749 H           1 MOL       0.0496
     48 H13        33.5709   41.0289  -10.2074 H           1 MOL       0.0496
     49 H14        32.1209   43.4714  -11.2888 H           1 MOL       0.0576
     50 H15        34.0833   41.5143  -12.5932 H           1 MOL       0.0454
     51 H16        34.5432   43.0016  -11.8045 H           1 MOL       0.0454
     52 H17        34.4669   45.0755  -13.0428 H           1 MOL       0.0557
     53 H18        32.6310   41.6530  -14.7046 H           1 MOL       0.0557
     54 H19        34.2119   46.2190  -15.1529 H           1 MOL       0.0599
     55 H20        32.3258   42.8341  -16.7823 H           1 MOL       0.0599
     56 H21        33.1251   45.1145  -17.0201 H           1 MOL       0.0559
     57 H22        30.3552   43.3170  -12.5666 H           1 MOL       0.1876
     58 H23        29.7879   41.0078  -14.1451 H           1 MOL       0.0749
     59 H24        27.3204   40.9542  -13.3124 H           1 MOL       0.0467
     60 H25        27.8642   41.8831  -11.9289 H           1 MOL       0.0467
     61 H26        28.6124   38.7172  -13.7809 H           1 MOL       0.0557
     62 H27        28.5617   40.6127  -10.0054 H           1 MOL       0.0557
     63 H28        29.2471   36.6445  -12.7218 H           1 MOL       0.0599
     64 H29        29.1850   38.5262   -8.9629 H           1 MOL       0.0599
     65 H30        29.5483   36.5431  -10.3149 H           1 MOL       0.0559
@<TRIPOS>BOND
     1    24    25   1
     2    25    28   1
     3    25    26   1
     4    26    27  ar
     5    26    35  ar
     6    28    29   1
     7    29    30  ar
     8    29    31  ar
     9    31    33  ar
    10    33    34  ar
    11    32    34  ar
    12    30    32  ar
    13     2     1   1
    14     3     2   1
    15     2     6   1
    16     3     4  ar
    17     3     5  ar
    18    13     3   1
    19     6     7   1
    20     7     8  ar
    21     7     9  ar
    22     8    10  ar
    23     9    11  ar
    24    10    12  ar
    25    11    12  ar
    26    14    13   1
    27    14    15   1
    28    22    14   1
    29    15    16   1
    30    16    17  ar
    31    16    18  ar
    32    17    19  ar
    33    18    20  ar
    34    19    21  ar
    35    20    21  ar
    36    22    23   2
    37    22    24  am
    38     1    36   1
    39     1    37   1
    40     1    38   1
    41     2    39   1
    42     6    40   1
    43     6    41   1
    44     8    42   1
    45     9    43   1
    46    10    44   1
    47    11    45   1
    48    12    46   1
    49    13    47   1
    50    13    48   1
    51    14    49   1
    52    15    50   1
    53    15    51   1
    54    17    52   1
    55    18    53   1
    56    19    54   1
    57    20    55   1
    58    21    56   1
    59    24    57   1
    60    25    58   1
    61    28    59   1
    62    28    60   1
    63    30    61   1
    64    31    62   1
    65    32    63   1
    66    33    64   1
    67    34    65   1
@<TRIPOS>SUBSTRUCTURE
     1  MOL      2

