@<TRIPOS>MOLECULE
1os0_ligand_066
    65    67
SMALL
GAST_HUCK
****
This file was generated by PARSER (from files_GN.cpp)

@<TRIPOS>ATOM
      1 N          33.6224   42.0162   -8.1026 N.4         1 MOL       0.2351
      2 CA         33.5172   42.0823   -9.5715 C.3         1 MOL       0.0466
      3 P          32.5794   43.3988  -10.0214 P.3         1 MOL       0.0403
      4 O1P        31.6843   43.7997   -8.9558 O.co2       1 MOL      -0.6153
      5 O2P        33.5314   44.4895  -10.1139 O.co2       1 MOL      -0.6153
      6 CB         33.1416   40.6840  -10.1548 C.3         1 MOL       0.0407
      7 CG         32.0981   39.8940   -9.4353 C.ar        1 MOL      -0.0360
      8 CD1        30.7683   39.8032   -9.9206 C.ar        1 MOL      -0.0601
      9 CD2        32.4546   39.0977   -8.3175 C.ar        1 MOL      -0.0601
     10 CE1        29.8278   38.9502   -9.3107 C.ar        1 MOL      -0.0686
     11 CE2        31.5183   38.2337   -7.7134 C.ar        1 MOL      -0.0686
     12 CZ         30.2099   38.1503   -8.2160 C.ar        1 MOL      -0.0687
     13 CM         31.8575   43.2311  -11.5225 C.3         1 MOL       0.0402
     14 CA         31.0608   44.4414  -12.1493 C.3         1 MOL       0.0742
     15 CB         31.9705   45.6693  -12.5176 C.3         1 MOL       0.0021
     16 CG         32.7114   45.5534  -13.8127 C.ar        1 MOL      -0.0405
     17 CD1        34.1110   45.3308  -13.8399 C.ar        1 MOL      -0.0602
     18 CD2        32.0245   45.6801  -15.0492 C.ar        1 MOL      -0.0602
     19 CE1        34.8013   45.2262  -15.0643 C.ar        1 MOL      -0.0686
     20 CE2        32.7123   45.5449  -16.2699 C.ar        1 MOL      -0.0686
     21 CZ         34.0981   45.3108  -16.2803 C.ar        1 MOL      -0.0687
     22 C          30.2145   44.0581  -13.3001 C.2         1 MOL       0.1844
     23 O          30.3384   42.9617  -13.8468 O.2         1 MOL      -0.3964
     24 N          29.3749   44.9448  -13.8246 N.am        1 MOL      -0.2692
     25 CA         28.5158   44.7568  -14.9623 C.3         1 MOL       0.1038
     26 C          27.6852   45.9796  -15.1192 C.2         1 MOL       0.0621
     27 O          27.3682   46.7507  -14.0565 O.co2       1 MOL      -0.5664
     28 CB         27.6554   43.4585  -14.8591 C.3         1 MOL       0.0159
     29 CG         26.6310   43.3230  -15.9386 C.ar        1 MOL      -0.0392
     30 CD1        27.0237   43.1941  -17.2937 C.ar        1 MOL      -0.0602
     31 CD2        25.2482   43.3094  -15.6312 C.ar        1 MOL      -0.0602
     32 CE1        26.0605   43.0718  -18.3148 C.ar        1 MOL      -0.0686
     33 CE2        24.2818   43.1979  -16.6523 C.ar        1 MOL      -0.0686
     34 CZ         24.6915   43.0677  -17.9939 C.ar        1 MOL      -0.0687
     35 OXT        27.2829   46.3818  -16.3472 O.co2       1 MOL      -0.5664
     36 H1         34.2929   41.2920   -7.8349 H           1 MOL       0.2014
     37 H2         32.7072   41.7912   -7.7054 H           1 MOL       0.2014
     38 H3         33.9335   42.9172   -7.7315 H           1 MOL       0.2014
     39 H4         34.5300   42.2869   -9.9399 H           1 MOL       0.1089
     40 H5         34.0614   40.0885  -10.1650 H           1 MOL       0.0499
     41 H6         32.8621   40.7863  -11.2080 H           1 MOL       0.0499
     42 H7         30.4731   40.3382  -10.7349 H           1 MOL       0.0557
     43 H8         33.4066   39.1247   -7.9463 H           1 MOL       0.0557
     44 H9         28.8751   38.8911   -9.6769 H           1 MOL       0.0599
     45 H10        31.7990   37.6479   -6.9223 H           1 MOL       0.0599
     46 H11        29.5307   37.5234   -7.7790 H           1 MOL       0.0559
     47 H12        31.1656   42.4065  -11.4031 H           1 MOL       0.0496
     48 H13        32.6289   42.9017  -12.2233 H           1 MOL       0.0496
     49 H14        30.3673   44.7893  -11.3724 H           1 MOL       0.0576
     50 H15        32.6846   45.8625  -11.7153 H           1 MOL       0.0454
     51 H16        31.3495   46.5641  -12.5531 H           1 MOL       0.0454
     52 H17        34.6392   45.2421  -12.9688 H           1 MOL       0.0557
     53 H18        31.0149   45.8593  -15.0652 H           1 MOL       0.0557
     54 H19        35.8125   45.0970  -15.0755 H           1 MOL       0.0599
     55 H20        32.2032   45.6259  -17.1538 H           1 MOL       0.0599
     56 H21        34.5932   45.2092  -17.1682 H           1 MOL       0.0559
     57 H22        29.3830   45.8306  -13.4260 H           1 MOL       0.1876
     58 H23        29.1581   44.6653  -15.8473 H           1 MOL       0.0749
     59 H24        27.1554   43.3995  -13.8891 H           1 MOL       0.0467
     60 H25        28.3312   42.5938  -14.8835 H           1 MOL       0.0467
     61 H26        28.0130   43.2132  -17.5458 H           1 MOL       0.0557
     62 H27        24.9305   43.3934  -14.6639 H           1 MOL       0.0557
     63 H28        26.3552   42.9833  -19.2933 H           1 MOL       0.0599
     64 H29        23.2830   43.2096  -16.4229 H           1 MOL       0.0599
     65 H30        23.9887   42.9938  -18.7357 H           1 MOL       0.0559
@<TRIPOS>BOND
     1    24    25   1
     2    25    28   1
     3    25    26   1
     4    26    27  ar
     5    26    35  ar
     6    28    29   1
     7    29    30  ar
     8    29    31  ar
     9    31    33  ar
    10    33    34  ar
    11    32    34  ar
    12    30    32  ar
    13     2     1   1
    14     3     2   1
    15     2     6   1
    16     3     4  ar
    17     3     5  ar
    18    13     3   1
    19     6     7   1
    20     7     8  ar
    21     7     9  ar
    22     8    10  ar
    23     9    11  ar
    24    10    12  ar
    25    11    12  ar
    26    14    13   1
    27    14    15   1
    28    22    14   1
    29    15    16   1
    30    16    17  ar
    31    16    18  ar
    32    17    19  ar
    33    18    20  ar
    34    19    21  ar
    35    20    21  ar
    36    22    23   2
    37    22    24  am
    38     1    36   1
    39     1    37   1
    40     1    38   1
    41     2    39   1
    42     6    40   1
    43     6    41   1
    44     8    42   1
    45     9    43   1
    46    10    44   1
    47    11    45   1
    48    12    46   1
    49    13    47   1
    50    13    48   1
    51    14    49   1
    52    15    50   1
    53    15    51   1
    54    17    52   1
    55    18    53   1
    56    19    54   1
    57    20    55   1
    58    21    56   1
    59    24    57   1
    60    25    58   1
    61    28    59   1
    62    28    60   1
    63    30    61   1
    64    31    62   1
    65    32    63   1
    66    33    64   1
    67    34    65   1
@<TRIPOS>SUBSTRUCTURE
     1  MOL      2

