@<TRIPOS>MOLECULE
1os0_ligand_012
    65    67
SMALL
GAST_HUCK
****
This file was generated by PARSER (from files_GN.cpp)

@<TRIPOS>ATOM
      1 N          35.5683   41.1581   -1.5865 N.4         1 MOL       0.2351
      2 CA         35.2455   42.2645   -2.5047 C.3         1 MOL       0.0466
      3 P          36.1496   42.1384   -3.9193 P.3         1 MOL       0.0403
      4 O1P        36.6332   43.4123   -4.3917 O.co2       1 MOL      -0.6153
      5 O2P        37.3106   41.2992   -3.7380 O.co2       1 MOL      -0.6153
      6 CB         35.2800   43.6485   -1.7809 C.3         1 MOL       0.0407
      7 CG         36.5020   43.9384   -0.9828 C.ar        1 MOL      -0.0360
      8 CD1        37.5550   44.7160   -1.5223 C.ar        1 MOL      -0.0601
      9 CD2        36.6037   43.4922    0.3577 C.ar        1 MOL      -0.0601
     10 CE1        38.6833   45.0270   -0.7467 C.ar        1 MOL      -0.0686
     11 CE2        37.7349   43.8032    1.1322 C.ar        1 MOL      -0.0686
     12 CZ         38.7779   44.5686    0.5809 C.ar        1 MOL      -0.0687
     13 CM         35.2044   41.5014   -5.1427 C.3         1 MOL       0.0402
     14 CA         35.9082   41.1805   -6.5175 C.3         1 MOL       0.0742
     15 CB         36.1009   39.6462   -6.7833 C.3         1 MOL       0.0021
     16 CG         34.9570   38.6754   -6.7732 C.ar        1 MOL      -0.0405
     17 CD1        33.6060   39.0238   -6.5340 C.ar        1 MOL      -0.0602
     18 CD2        35.2551   37.3048   -7.0002 C.ar        1 MOL      -0.0602
     19 CE1        32.5954   38.0360   -6.4978 C.ar        1 MOL      -0.0686
     20 CE2        34.2518   36.3176   -6.9592 C.ar        1 MOL      -0.0686
     21 CZ         32.9214   36.6836   -6.7023 C.ar        1 MOL      -0.0687
     22 C          35.3212   41.9414   -7.6269 C.2         1 MOL       0.1844
     23 O          35.4910   43.1541   -7.6404 O.2         1 MOL      -0.3964
     24 N          34.5293   41.3717   -8.5301 N.am        1 MOL      -0.2692
     25 CA         33.8194   41.9996   -9.6121 C.3         1 MOL       0.1038
     26 C          32.9589   43.0992   -9.1181 C.2         1 MOL       0.0621
     27 O          33.0963   44.3467   -9.6285 O.co2       1 MOL      -0.5664
     28 CB         32.9412   40.9545  -10.3732 C.3         1 MOL       0.0159
     29 CG         33.6793   40.1259  -11.3699 C.ar        1 MOL      -0.0392
     30 CD1        34.6235   39.1582  -10.9526 C.ar        1 MOL      -0.0602
     31 CD2        33.4156   40.2578  -12.7557 C.ar        1 MOL      -0.0602
     32 CE1        35.2911   38.3522  -11.8903 C.ar        1 MOL      -0.0686
     33 CE2        34.0763   39.4458  -13.6952 C.ar        1 MOL      -0.0686
     34 CZ         35.0160   38.4929  -13.2615 C.ar        1 MOL      -0.0687
     35 OXT        31.9824   42.8733   -8.2108 O.co2       1 MOL      -0.5664
     36 H1         34.9000   41.1475   -0.8069 H           1 MOL       0.2014
     37 H2         36.5130   41.2766   -1.2168 H           1 MOL       0.2014
     38 H3         35.5120   40.2653   -2.0803 H           1 MOL       0.2014
     39 H4         34.1976   42.1068   -2.7760 H           1 MOL       0.1089
     40 H5         34.4108   43.6977   -1.1121 H           1 MOL       0.0499
     41 H6         35.1177   44.4494   -2.5096 H           1 MOL       0.0499
     42 H7         37.5030   45.0737   -2.4781 H           1 MOL       0.0557
     43 H8         35.8461   42.9525    0.7808 H           1 MOL       0.0557
     44 H9         39.4277   45.5976   -1.1489 H           1 MOL       0.0599
     45 H10        37.7935   43.4853    2.1020 H           1 MOL       0.0599
     46 H11        39.5948   44.7924    1.1480 H           1 MOL       0.0559
     47 H12        34.3750   42.2062   -5.2828 H           1 MOL       0.0496
     48 H13        34.7629   40.5953   -4.7284 H           1 MOL       0.0496
     49 H14        36.9410   41.5597   -6.4740 H           1 MOL       0.0576
     50 H15        36.8176   39.2887   -6.0332 H           1 MOL       0.0454
     51 H16        36.5937   39.5387   -7.7537 H           1 MOL       0.0454
     52 H17        33.3333   39.9916   -6.4046 H           1 MOL       0.0557
     53 H18        36.2210   37.0085   -7.1844 H           1 MOL       0.0557
     54 H19        31.6261   38.3057   -6.3233 H           1 MOL       0.0599
     55 H20        34.4914   35.3343   -7.1052 H           1 MOL       0.0599
     56 H21        32.1829   35.9771   -6.6794 H           1 MOL       0.0559
     57 H22        34.4017   40.4212   -8.4584 H           1 MOL       0.1876
     58 H23        34.5585   42.4142  -10.3047 H           1 MOL       0.0749
     59 H24        32.1293   41.4850  -10.8872 H           1 MOL       0.0467
     60 H25        32.4487   40.2853   -9.6551 H           1 MOL       0.0467
     61 H26        34.8240   39.0189   -9.9625 H           1 MOL       0.0557
     62 H27        32.7334   40.9413  -13.0918 H           1 MOL       0.0557
     63 H28        35.9660   37.6551  -11.5759 H           1 MOL       0.0599
     64 H29        33.8715   39.5444  -14.6907 H           1 MOL       0.0599
     65 H30        35.4949   37.8989  -13.9449 H           1 MOL       0.0559
@<TRIPOS>BOND
     1    24    25   1
     2    25    28   1
     3    25    26   1
     4    26    27  ar
     5    26    35  ar
     6    28    29   1
     7    29    30  ar
     8    29    31  ar
     9    31    33  ar
    10    33    34  ar
    11    32    34  ar
    12    30    32  ar
    13     2     1   1
    14     3     2   1
    15     2     6   1
    16     3     4  ar
    17     3     5  ar
    18    13     3   1
    19     6     7   1
    20     7     8  ar
    21     7     9  ar
    22     8    10  ar
    23     9    11  ar
    24    10    12  ar
    25    11    12  ar
    26    14    13   1
    27    14    15   1
    28    22    14   1
    29    15    16   1
    30    16    17  ar
    31    16    18  ar
    32    17    19  ar
    33    18    20  ar
    34    19    21  ar
    35    20    21  ar
    36    22    23   2
    37    22    24  am
    38     1    36   1
    39     1    37   1
    40     1    38   1
    41     2    39   1
    42     6    40   1
    43     6    41   1
    44     8    42   1
    45     9    43   1
    46    10    44   1
    47    11    45   1
    48    12    46   1
    49    13    47   1
    50    13    48   1
    51    14    49   1
    52    15    50   1
    53    15    51   1
    54    17    52   1
    55    18    53   1
    56    19    54   1
    57    20    55   1
    58    21    56   1
    59    24    57   1
    60    25    58   1
    61    28    59   1
    62    28    60   1
    63    30    61   1
    64    31    62   1
    65    32    63   1
    66    33    64   1
    67    34    65   1
@<TRIPOS>SUBSTRUCTURE
     1  MOL      2

