@<TRIPOS>MOLECULE
1os0_ligand_085
    65    67
SMALL
GAST_HUCK
****
This file was generated by PARSER (from files_GN.cpp)

@<TRIPOS>ATOM
      1 N          34.4131   38.9827  -11.4093 N.4         1 MOL       0.2351
      2 CA         33.4388   39.8123  -12.1446 C.3         1 MOL       0.0466
      3 P          32.0992   40.1413  -11.1705 P.3         1 MOL       0.0403
      4 O1P        30.8910   39.5540  -11.6913 O.co2       1 MOL      -0.6153
      5 O2P        32.1965   39.5505   -9.8544 O.co2       1 MOL      -0.6153
      6 CB         33.1433   39.1757  -13.5465 C.3         1 MOL       0.0407
      7 CG         32.7508   40.1725  -14.5841 C.ar        1 MOL      -0.0360
      8 CD1        33.7266   40.7186  -15.4564 C.ar        1 MOL      -0.0601
      9 CD2        31.4078   40.5825  -14.7449 C.ar        1 MOL      -0.0601
     10 CE1        33.3684   41.6382  -16.4612 C.ar        1 MOL      -0.0686
     11 CE2        31.0504   41.5259  -15.7274 C.ar        1 MOL      -0.0686
     12 CZ         32.0318   42.0550  -16.5859 C.ar        1 MOL      -0.0687
     13 CM         31.8104   41.7691  -10.9567 C.3         1 MOL       0.0402
     14 CA         32.8905   42.5700  -10.1357 C.3         1 MOL       0.0742
     15 CB         32.6981   44.1183  -10.2533 C.3         1 MOL       0.0021
     16 CG         32.7360   44.6274  -11.6515 C.ar        1 MOL      -0.0405
     17 CD1        31.5499   45.0345  -12.3093 C.ar        1 MOL      -0.0602
     18 CD2        33.9530   44.6659  -12.3714 C.ar        1 MOL      -0.0602
     19 CE1        31.5782   45.4508  -13.6543 C.ar        1 MOL      -0.0686
     20 CE2        33.9846   45.0837  -13.7154 C.ar        1 MOL      -0.0686
     21 CZ         32.7942   45.4714  -14.3573 C.ar        1 MOL      -0.0687
     22 C          32.9098   42.1755   -8.7222 C.2         1 MOL       0.1844
     23 O          31.9175   42.4261   -8.0452 O.2         1 MOL      -0.3964
     24 N          33.9701   41.5684   -8.1777 N.am        1 MOL      -0.2692
     25 CA         34.1270   41.1903   -6.7904 C.3         1 MOL       0.1038
     26 C          35.0375   42.1401   -6.1036 C.2         1 MOL       0.0621
     27 O          35.2485   42.0440   -4.7703 O.co2       1 MOL      -0.5664
     28 CB         34.6760   39.7335   -6.6597 C.3         1 MOL       0.0159
     29 CG         33.7754   38.6654   -7.1898 C.ar        1 MOL      -0.0392
     30 CD1        32.4912   38.4611   -6.6250 C.ar        1 MOL      -0.0602
     31 CD2        34.2046   37.7902   -8.2216 C.ar        1 MOL      -0.0602
     32 CE1        31.6455   37.4443   -7.1089 C.ar        1 MOL      -0.0686
     33 CE2        33.3645   36.7612   -8.6872 C.ar        1 MOL      -0.0686
     34 CZ         32.0790   36.5970   -8.1411 C.ar        1 MOL      -0.0687
     35 OXT        35.5950   43.1961   -6.7423 O.co2       1 MOL      -0.5664
     36 H1         35.2470   38.8540  -11.9824 H           1 MOL       0.2014
     37 H2         34.0107   38.0688  -11.1843 H           1 MOL       0.2014
     38 H3         34.6801   39.4553  -10.5463 H           1 MOL       0.2014
     39 H4         33.9652   40.7543  -12.3165 H           1 MOL       0.1089
     40 H5         32.3867   38.3895  -13.4688 H           1 MOL       0.0499
     41 H6         34.0596   38.6775  -13.8892 H           1 MOL       0.0499
     42 H7         34.7034   40.4369  -15.3788 H           1 MOL       0.0557
     43 H8         30.6693   40.1889  -14.1578 H           1 MOL       0.0557
     44 H9         34.0809   41.9981  -17.1010 H           1 MOL       0.0599
     45 H10        30.0762   41.8104  -15.8369 H           1 MOL       0.0599
     46 H11        31.7755   42.7332  -17.3046 H           1 MOL       0.0559
     47 H12        30.8322   41.8929  -10.4798 H           1 MOL       0.0496
     48 H13        31.7238   42.1862  -11.9636 H           1 MOL       0.0496
     49 H14        33.8696   42.3569  -10.5647 H           1 MOL       0.0576
     50 H15        33.4835   44.6310   -9.6850 H           1 MOL       0.0454
     51 H16        31.7442   44.3920   -9.7861 H           1 MOL       0.0454
     52 H17        30.6509   45.0045  -11.8225 H           1 MOL       0.0557
     53 H18        34.8256   44.3852  -11.9183 H           1 MOL       0.0557
     54 H19        30.7124   45.7362  -14.1191 H           1 MOL       0.0599
     55 H20        34.8722   45.1147  -14.2240 H           1 MOL       0.0599
     56 H21        32.8159   45.7769  -15.3326 H           1 MOL       0.0559
     57 H22        34.7346   41.4227   -8.7537 H           1 MOL       0.1876
     58 H23        33.1777   41.2410   -6.2621 H           1 MOL       0.0749
     59 H24        34.8513   39.5008   -5.6066 H           1 MOL       0.0467
     60 H25        35.6474   39.6919   -7.1563 H           1 MOL       0.0467
     61 H26        32.1663   39.0510   -5.8581 H           1 MOL       0.0557
     62 H27        35.1284   37.9029   -8.6386 H           1 MOL       0.0557
     63 H28        30.7180   37.3097   -6.7002 H           1 MOL       0.0599
     64 H29        33.6831   36.1410   -9.4335 H           1 MOL       0.0599
     65 H30        31.4587   35.8619   -8.4991 H           1 MOL       0.0559
@<TRIPOS>BOND
     1    24    25   1
     2    25    28   1
     3    25    26   1
     4    26    27  ar
     5    26    35  ar
     6    28    29   1
     7    29    30  ar
     8    29    31  ar
     9    31    33  ar
    10    33    34  ar
    11    32    34  ar
    12    30    32  ar
    13     2     1   1
    14     3     2   1
    15     2     6   1
    16     3     4  ar
    17     3     5  ar
    18    13     3   1
    19     6     7   1
    20     7     8  ar
    21     7     9  ar
    22     8    10  ar
    23     9    11  ar
    24    10    12  ar
    25    11    12  ar
    26    14    13   1
    27    14    15   1
    28    22    14   1
    29    15    16   1
    30    16    17  ar
    31    16    18  ar
    32    17    19  ar
    33    18    20  ar
    34    19    21  ar
    35    20    21  ar
    36    22    23   2
    37    22    24  am
    38     1    36   1
    39     1    37   1
    40     1    38   1
    41     2    39   1
    42     6    40   1
    43     6    41   1
    44     8    42   1
    45     9    43   1
    46    10    44   1
    47    11    45   1
    48    12    46   1
    49    13    47   1
    50    13    48   1
    51    14    49   1
    52    15    50   1
    53    15    51   1
    54    17    52   1
    55    18    53   1
    56    19    54   1
    57    20    55   1
    58    21    56   1
    59    24    57   1
    60    25    58   1
    61    28    59   1
    62    28    60   1
    63    30    61   1
    64    31    62   1
    65    32    63   1
    66    33    64   1
    67    34    65   1
@<TRIPOS>SUBSTRUCTURE
     1  MOL      2

