@<TRIPOS>MOLECULE
1os0_ligand_016
    65    67
SMALL
GAST_HUCK
****
This file was generated by PARSER (from files_GN.cpp)

@<TRIPOS>ATOM
      1 N          35.1616   40.6599   -4.0532 N.4         1 MOL       0.2351
      2 CA         35.8925   41.7769   -4.6749 C.3         1 MOL       0.0466
      3 P          35.4734   41.9189   -6.2889 P.3         1 MOL       0.0403
      4 O1P        36.2835   42.9778   -6.8400 O.co2       1 MOL      -0.6153
      5 O2P        35.8524   40.7574   -7.0568 O.co2       1 MOL      -0.6153
      6 CB         37.4334   41.7106   -4.3619 C.3         1 MOL       0.0407
      7 CG         38.0398   40.3692   -4.0850 C.ar        1 MOL      -0.0360
      8 CD1        37.9899   39.3269   -5.0464 C.ar        1 MOL      -0.0601
      9 CD2        38.7170   40.1177   -2.8662 C.ar        1 MOL      -0.0601
     10 CE1        38.5596   38.0689   -4.7877 C.ar        1 MOL      -0.0686
     11 CE2        39.3122   38.8646   -2.6148 C.ar        1 MOL      -0.0686
     12 CZ         39.2258   37.8375   -3.5703 C.ar        1 MOL      -0.0687
     13 CM         33.8824   42.3726   -6.5715 C.3         1 MOL       0.0402
     14 CA         33.2355   41.9565   -7.9388 C.3         1 MOL       0.0742
     15 CB         33.8980   42.6992   -9.1774 C.3         1 MOL       0.0021
     16 CG         33.1549   43.7214   -9.9802 C.ar        1 MOL      -0.0405
     17 CD1        33.9146   44.5722  -10.8309 C.ar        1 MOL      -0.0602
     18 CD2        31.7424   43.8259  -10.0381 C.ar        1 MOL      -0.0602
     19 CE1        33.2966   45.5289  -11.6565 C.ar        1 MOL      -0.0686
     20 CE2        31.1229   44.7942  -10.8561 C.ar        1 MOL      -0.0686
     21 CZ         31.8963   45.6504  -11.6561 C.ar        1 MOL      -0.0687
     22 C          33.0931   40.4875   -8.0588 C.2         1 MOL       0.1844
     23 O          33.2177   39.9454   -9.1611 O.2         1 MOL      -0.3964
     24 N          32.7705   39.7283   -7.0175 N.am        1 MOL      -0.2692
     25 CA         32.5679   38.2997   -6.9777 C.3         1 MOL       0.1038
     26 C          33.8720   37.5967   -6.8275 C.2         1 MOL       0.0621
     27 O          34.9807   38.2768   -6.4605 O.co2       1 MOL      -0.5664
     28 CB         31.6910   37.8028   -8.1804 C.3         1 MOL       0.0159
     29 CG         30.9127   36.5484   -7.9388 C.ar        1 MOL      -0.0392
     30 CD1        29.5301   36.6111   -7.6359 C.ar        1 MOL      -0.0602
     31 CD2        31.5130   35.2714   -8.0620 C.ar        1 MOL      -0.0602
     32 CE1        28.7803   35.4368   -7.4301 C.ar        1 MOL      -0.0686
     33 CE2        30.7681   34.0971   -7.8373 C.ar        1 MOL      -0.0686
     34 CZ         29.4019   34.1788   -7.5172 C.ar        1 MOL      -0.0687
     35 OXT        33.8960   36.2678   -6.5584 O.co2       1 MOL      -0.5664
     36 H1         35.3818   40.6183   -3.0534 H           1 MOL       0.2014
     37 H2         35.4324   39.7754   -4.4862 H           1 MOL       0.2014
     38 H3         34.1563   40.7869   -4.1629 H           1 MOL       0.2014
     39 H4         35.5029   42.6787   -4.1964 H           1 MOL       0.1089
     40 H5         37.6041   42.3581   -3.4925 H           1 MOL       0.0499
     41 H6         38.0243   42.1625   -5.1639 H           1 MOL       0.0499
     42 H7         37.5357   39.4681   -5.9462 H           1 MOL       0.0557
     43 H8         38.7983   40.8499   -2.1562 H           1 MOL       0.0557
     44 H9         38.4945   37.3254   -5.4876 H           1 MOL       0.0599
     45 H10        39.8122   38.7032   -1.7387 H           1 MOL       0.0599
     46 H11        39.6494   36.9234   -3.3863 H           1 MOL       0.0559
     47 H12        33.8203   43.4639   -6.4876 H           1 MOL       0.0496
     48 H13        33.2729   41.9849   -5.7561 H           1 MOL       0.0496
     49 H14        32.2009   42.3158   -7.8479 H           1 MOL       0.0576
     50 H15        34.2753   41.9884   -9.9156 H           1 MOL       0.0454
     51 H16        34.8078   43.1899   -8.8150 H           1 MOL       0.0454
     52 H17        34.9376   44.4935  -10.8589 H           1 MOL       0.0557
     53 H18        31.1471   43.1813   -9.5059 H           1 MOL       0.0557
     54 H19        33.8650   46.1307  -12.2547 H           1 MOL       0.0599
     55 H20        30.1067   44.8572  -10.8802 H           1 MOL       0.0599
     56 H21        31.4396   46.3468  -12.2507 H           1 MOL       0.0559
     57 H22        32.6715   40.1812   -6.1661 H           1 MOL       0.1876
     58 H23        32.0153   38.1106   -6.0534 H           1 MOL       0.0749
     59 H24        32.3170   37.6658   -9.0659 H           1 MOL       0.0467
     60 H25        30.9762   38.5853   -8.4454 H           1 MOL       0.0467
     61 H26        29.0566   37.5181   -7.5797 H           1 MOL       0.0557
     62 H27        32.4978   35.1845   -8.3312 H           1 MOL       0.0557
     63 H28        27.7807   35.4989   -7.2231 H           1 MOL       0.0599
     64 H29        31.2216   33.1824   -7.9201 H           1 MOL       0.0599
     65 H30        28.8638   33.3272   -7.3616 H           1 MOL       0.0559
@<TRIPOS>BOND
     1    24    25   1
     2    25    28   1
     3    25    26   1
     4    26    27  ar
     5    26    35  ar
     6    28    29   1
     7    29    30  ar
     8    29    31  ar
     9    31    33  ar
    10    33    34  ar
    11    32    34  ar
    12    30    32  ar
    13     2     1   1
    14     3     2   1
    15     2     6   1
    16     3     4  ar
    17     3     5  ar
    18    13     3   1
    19     6     7   1
    20     7     8  ar
    21     7     9  ar
    22     8    10  ar
    23     9    11  ar
    24    10    12  ar
    25    11    12  ar
    26    14    13   1
    27    14    15   1
    28    22    14   1
    29    15    16   1
    30    16    17  ar
    31    16    18  ar
    32    17    19  ar
    33    18    20  ar
    34    19    21  ar
    35    20    21  ar
    36    22    23   2
    37    22    24  am
    38     1    36   1
    39     1    37   1
    40     1    38   1
    41     2    39   1
    42     6    40   1
    43     6    41   1
    44     8    42   1
    45     9    43   1
    46    10    44   1
    47    11    45   1
    48    12    46   1
    49    13    47   1
    50    13    48   1
    51    14    49   1
    52    15    50   1
    53    15    51   1
    54    17    52   1
    55    18    53   1
    56    19    54   1
    57    20    55   1
    58    21    56   1
    59    24    57   1
    60    25    58   1
    61    28    59   1
    62    28    60   1
    63    30    61   1
    64    31    62   1
    65    32    63   1
    66    33    64   1
    67    34    65   1
@<TRIPOS>SUBSTRUCTURE
     1  MOL      2

