@<TRIPOS>MOLECULE
1os0_ligand_007
    65    67
SMALL
GAST_HUCK
****
This file was generated by PARSER (from files_GN.cpp)

@<TRIPOS>ATOM
      1 N          35.5613   40.1518   -5.2812 N.4         1 MOL       0.2351
      2 CA         35.0637   41.5235   -5.4923 C.3         1 MOL       0.0466
      3 P          34.9717   41.8761   -7.1416 P.3         1 MOL       0.0403
      4 O1P        35.8105   42.9996   -7.4491 O.co2       1 MOL      -0.6153
      5 O2P        35.5129   40.8011   -7.9265 O.co2       1 MOL      -0.6153
      6 CB         35.9039   42.5456   -4.6513 C.3         1 MOL       0.0407
      7 CG         35.7823   42.5768   -3.1613 C.ar        1 MOL      -0.0360
      8 CD1        36.5895   43.4937   -2.4478 C.ar        1 MOL      -0.0601
      9 CD2        34.8626   41.7919   -2.4229 C.ar        1 MOL      -0.0601
     10 CE1        36.4954   43.6206   -1.0525 C.ar        1 MOL      -0.0686
     11 CE2        34.7558   41.9223   -1.0234 C.ar        1 MOL      -0.0686
     12 CZ         35.5796   42.8339   -0.3363 C.ar        1 MOL      -0.0687
     13 CM         33.4046   42.1808   -7.6462 C.3         1 MOL       0.0402
     14 CA         33.0510   42.3941   -9.1744 C.3         1 MOL       0.0742
     15 CB         34.2328   42.7510  -10.1469 C.3         1 MOL       0.0021
     16 CG         33.8611   43.1523  -11.5406 C.ar        1 MOL      -0.0405
     17 CD1        33.7952   44.5170  -11.9175 C.ar        1 MOL      -0.0602
     18 CD2        33.5860   42.1749  -12.5267 C.ar        1 MOL      -0.0602
     19 CE1        33.4477   44.8921  -13.2277 C.ar        1 MOL      -0.0686
     20 CE2        33.2194   42.5482  -13.8345 C.ar        1 MOL      -0.0686
     21 CZ         33.1509   43.9077  -14.1875 C.ar        1 MOL      -0.0687
     22 C          32.2564   41.2683   -9.6798 C.2         1 MOL       0.1844
     23 O          32.8309   40.2217   -9.9511 O.2         1 MOL      -0.3964
     24 N          30.9335   41.3825   -9.8099 N.am        1 MOL      -0.2692
     25 CA         30.0028   40.5114  -10.4839 C.3         1 MOL       0.1038
     26 C          30.1310   39.0933  -10.0653 C.2         1 MOL       0.0621
     27 O          29.8688   38.7470   -8.7858 O.co2       1 MOL      -0.5664
     28 CB         30.0304   40.7329  -12.0308 C.3         1 MOL       0.0159
     29 CG         29.5232   42.0627  -12.4974 C.ar        1 MOL      -0.0392
     30 CD1        28.3693   42.1570  -13.3136 C.ar        1 MOL      -0.0602
     31 CD2        30.2028   43.2653  -12.1820 C.ar        1 MOL      -0.0602
     32 CE1        27.9189   43.4018  -13.7972 C.ar        1 MOL      -0.0686
     33 CE2        29.7546   44.5106  -12.6555 C.ar        1 MOL      -0.0686
     34 CZ         28.6110   44.5801  -13.4654 C.ar        1 MOL      -0.0687
     35 OXT        30.7058   38.1661  -10.8643 O.co2       1 MOL      -0.5664
     36 H1         35.5544   39.9264   -4.2856 H           1 MOL       0.2014
     37 H2         36.5104   40.0697   -5.6497 H           1 MOL       0.2014
     38 H3         34.9518   39.4906   -5.7670 H           1 MOL       0.2014
     39 H4         34.0390   41.5466   -5.1154 H           1 MOL       0.1089
     40 H5         35.6444   43.5581   -4.9760 H           1 MOL       0.0499
     41 H6         36.9536   42.3790   -4.9057 H           1 MOL       0.0499
     42 H7         37.2565   44.0850   -2.9433 H           1 MOL       0.0557
     43 H8         34.2512   41.1282   -2.8929 H           1 MOL       0.0557
     44 H9         37.0877   44.2862   -0.5570 H           1 MOL       0.0599
     45 H10        34.0758   41.3603   -0.5048 H           1 MOL       0.0599
     46 H11        35.5140   42.9235    0.6814 H           1 MOL       0.0559
     47 H12        33.1035   43.0772   -7.1027 H           1 MOL       0.0496
     48 H13        32.7960   41.3724   -7.2350 H           1 MOL       0.0496
     49 H14        32.4090   43.2848   -9.2036 H           1 MOL       0.0576
     50 H15        34.9247   41.9086  -10.2060 H           1 MOL       0.0454
     51 H16        34.7962   43.5731   -9.6957 H           1 MOL       0.0454
     52 H17        33.9960   45.2519  -11.2409 H           1 MOL       0.0557
     53 H18        33.6356   41.1805  -12.3000 H           1 MOL       0.0557
     54 H19        33.4029   45.8816  -13.4840 H           1 MOL       0.0599
     55 H20        32.9932   41.8315  -14.5287 H           1 MOL       0.0599
     56 H21        32.8823   44.1804  -15.1386 H           1 MOL       0.0559
     57 H22        30.5503   42.2280   -9.5312 H           1 MOL       0.1876
     58 H23        29.0090   40.8146  -10.1499 H           1 MOL       0.0749
     59 H24        29.4346   39.9405  -12.4917 H           1 MOL       0.0467
     60 H25        31.0497   40.6035  -12.3944 H           1 MOL       0.0467
     61 H26        27.8489   41.3155  -13.5718 H           1 MOL       0.0557
     62 H27        31.0392   43.2494  -11.6055 H           1 MOL       0.0557
     63 H28        27.0885   43.4504  -14.3906 H           1 MOL       0.0599
     64 H29        30.2653   45.3643  -12.4158 H           1 MOL       0.0599
     65 H30        28.2861   45.4854  -13.8128 H           1 MOL       0.0559
@<TRIPOS>BOND
     1    24    25   1
     2    25    28   1
     3    25    26   1
     4    26    27  ar
     5    26    35  ar
     6    28    29   1
     7    29    30  ar
     8    29    31  ar
     9    31    33  ar
    10    33    34  ar
    11    32    34  ar
    12    30    32  ar
    13     2     1   1
    14     3     2   1
    15     2     6   1
    16     3     4  ar
    17     3     5  ar
    18    13     3   1
    19     6     7   1
    20     7     8  ar
    21     7     9  ar
    22     8    10  ar
    23     9    11  ar
    24    10    12  ar
    25    11    12  ar
    26    14    13   1
    27    14    15   1
    28    22    14   1
    29    15    16   1
    30    16    17  ar
    31    16    18  ar
    32    17    19  ar
    33    18    20  ar
    34    19    21  ar
    35    20    21  ar
    36    22    23   2
    37    22    24  am
    38     1    36   1
    39     1    37   1
    40     1    38   1
    41     2    39   1
    42     6    40   1
    43     6    41   1
    44     8    42   1
    45     9    43   1
    46    10    44   1
    47    11    45   1
    48    12    46   1
    49    13    47   1
    50    13    48   1
    51    14    49   1
    52    15    50   1
    53    15    51   1
    54    17    52   1
    55    18    53   1
    56    19    54   1
    57    20    55   1
    58    21    56   1
    59    24    57   1
    60    25    58   1
    61    28    59   1
    62    28    60   1
    63    30    61   1
    64    31    62   1
    65    32    63   1
    66    33    64   1
    67    34    65   1
@<TRIPOS>SUBSTRUCTURE
     1  MOL      2

