@<TRIPOS>MOLECULE
1os0_ligand_017
    65    67
SMALL
GAST_HUCK
****
This file was generated by PARSER (from files_GN.cpp)

@<TRIPOS>ATOM
      1 N          35.1259   39.9728   -5.6763 N.4         1 MOL       0.2351
      2 CA         34.8460   41.4221   -5.7010 C.3         1 MOL       0.0466
      3 P          34.7652   41.9506   -7.2892 P.3         1 MOL       0.0403
      4 O1P        35.6285   43.0959   -7.4405 O.co2       1 MOL      -0.6153
      5 O2P        35.3078   40.9435   -8.1621 O.co2       1 MOL      -0.6153
      6 CB         35.8858   42.1931   -4.8248 C.3         1 MOL       0.0407
      7 CG         35.9913   41.7483   -3.4093 C.ar        1 MOL      -0.0360
      8 CD1        37.2324   41.3192   -2.8678 C.ar        1 MOL      -0.0601
      9 CD2        34.8518   41.7362   -2.5615 C.ar        1 MOL      -0.0601
     10 CE1        37.3390   40.9115   -1.5237 C.ar        1 MOL      -0.0686
     11 CE2        34.9500   41.3114   -1.2236 C.ar        1 MOL      -0.0686
     12 CZ         36.1905   40.8926   -0.6989 C.ar        1 MOL      -0.0687
     13 CM         33.2597   42.4771   -7.7852 C.3         1 MOL       0.0402
     14 CA         32.9775   42.6758   -9.3297 C.3         1 MOL       0.0742
     15 CB         34.2233   43.0377  -10.2191 C.3         1 MOL       0.0021
     16 CG         33.9492   43.2918  -11.6611 C.ar        1 MOL      -0.0405
     17 CD1        33.6430   42.2224  -12.5325 C.ar        1 MOL      -0.0602
     18 CD2        34.0012   44.6021  -12.1969 C.ar        1 MOL      -0.0602
     19 CE1        33.3918   42.4430  -13.8964 C.ar        1 MOL      -0.0686
     20 CE2        33.7639   44.8268  -13.5690 C.ar        1 MOL      -0.0686
     21 CZ         33.4504   43.7480  -14.4173 C.ar        1 MOL      -0.0687
     22 C          32.1805   41.6031   -9.9400 C.2         1 MOL       0.1844
     23 O          31.3870   41.9178  -10.8202 O.2         1 MOL      -0.3964
     24 N          32.2465   40.3358   -9.5464 N.am        1 MOL      -0.2692
     25 CA         31.4287   39.2422   -9.9864 C.3         1 MOL       0.1038
     26 C          31.7565   38.8662  -11.3799 C.2         1 MOL       0.0621
     27 O          33.0390   38.5934  -11.7122 O.co2       1 MOL      -0.5664
     28 CB         29.9184   39.5129   -9.6915 C.3         1 MOL       0.0159
     29 CG         29.1023   38.3374   -9.2746 C.ar        1 MOL      -0.0392
     30 CD1        29.5230   37.5280   -8.1873 C.ar        1 MOL      -0.0602
     31 CD2        27.8521   38.0552   -9.8843 C.ar        1 MOL      -0.0602
     32 CE1        28.7084   36.4783   -7.7137 C.ar        1 MOL      -0.0686
     33 CE2        27.0408   37.0026   -9.4055 C.ar        1 MOL      -0.0686
     34 CZ         27.4623   36.2180   -8.3206 C.ar        1 MOL      -0.0687
     35 OXT        30.8287   38.8334  -12.3630 O.co2       1 MOL      -0.5664
     36 H1         35.1980   39.6432   -4.7084 H           1 MOL       0.2014
     37 H2         36.0208   39.7891   -6.1480 H           1 MOL       0.2014
     38 H3         34.3776   39.4696   -6.1497 H           1 MOL       0.2014
     39 H4         33.8642   41.5755   -5.2503 H           1 MOL       0.1089
     40 H5         35.6019   43.2537   -4.7970 H           1 MOL       0.0499
     41 H6         36.8779   42.1419   -5.3015 H           1 MOL       0.0499
     42 H7         38.0765   41.3030   -3.4458 H           1 MOL       0.0557
     43 H8         33.9522   42.0629   -2.9104 H           1 MOL       0.0557
     44 H9         38.2347   40.6094   -1.1453 H           1 MOL       0.0599
     45 H10        34.1200   41.3101   -0.6198 H           1 MOL       0.0599
     46 H11        36.2625   40.5901    0.2730 H           1 MOL       0.0559
     47 H12        33.0963   43.4369   -7.2881 H           1 MOL       0.0496
     48 H13        32.5099   41.8072   -7.3591 H           1 MOL       0.0496
     49 H14        32.3303   43.5672   -9.3548 H           1 MOL       0.0576
     50 H15        34.9511   42.2239  -10.1517 H           1 MOL       0.0454
     51 H16        34.7117   43.9291   -9.8012 H           1 MOL       0.0454
     52 H17        33.6000   41.2619  -12.1774 H           1 MOL       0.0557
     53 H18        34.2200   45.4016  -11.5993 H           1 MOL       0.0557
     54 H19        33.1538   41.6608  -14.5100 H           1 MOL       0.0599
     55 H20        33.8063   45.7804  -13.9497 H           1 MOL       0.0599
     56 H21        33.2630   43.9139  -15.4101 H           1 MOL       0.0559
     57 H22        32.8952   40.1289   -8.8546 H           1 MOL       0.1876
     58 H23        31.7326   38.3918   -9.3664 H           1 MOL       0.0749
     59 H24        29.4560   39.9941  -10.5599 H           1 MOL       0.0467
     60 H25        29.8470   40.2406   -8.8864 H           1 MOL       0.0467
     61 H26        30.4141   37.7141   -7.7156 H           1 MOL       0.0557
     62 H27        27.5161   38.6235  -10.6688 H           1 MOL       0.0557
     63 H28        29.0161   35.9101   -6.9176 H           1 MOL       0.0599
     64 H29        26.1386   36.8161   -9.8498 H           1 MOL       0.0599
     65 H30        26.8716   35.4574   -7.9705 H           1 MOL       0.0559
@<TRIPOS>BOND
     1    24    25   1
     2    25    28   1
     3    25    26   1
     4    26    27  ar
     5    26    35  ar
     6    28    29   1
     7    29    30  ar
     8    29    31  ar
     9    31    33  ar
    10    33    34  ar
    11    32    34  ar
    12    30    32  ar
    13     2     1   1
    14     3     2   1
    15     2     6   1
    16     3     4  ar
    17     3     5  ar
    18    13     3   1
    19     6     7   1
    20     7     8  ar
    21     7     9  ar
    22     8    10  ar
    23     9    11  ar
    24    10    12  ar
    25    11    12  ar
    26    14    13   1
    27    14    15   1
    28    22    14   1
    29    15    16   1
    30    16    17  ar
    31    16    18  ar
    32    17    19  ar
    33    18    20  ar
    34    19    21  ar
    35    20    21  ar
    36    22    23   2
    37    22    24  am
    38     1    36   1
    39     1    37   1
    40     1    38   1
    41     2    39   1
    42     6    40   1
    43     6    41   1
    44     8    42   1
    45     9    43   1
    46    10    44   1
    47    11    45   1
    48    12    46   1
    49    13    47   1
    50    13    48   1
    51    14    49   1
    52    15    50   1
    53    15    51   1
    54    17    52   1
    55    18    53   1
    56    19    54   1
    57    20    55   1
    58    21    56   1
    59    24    57   1
    60    25    58   1
    61    28    59   1
    62    28    60   1
    63    30    61   1
    64    31    62   1
    65    32    63   1
    66    33    64   1
    67    34    65   1
@<TRIPOS>SUBSTRUCTURE
     1  MOL      2

