@<TRIPOS>MOLECULE
1os0_ligand_094
    65    67
SMALL
GAST_HUCK
****
This file was generated by PARSER (from files_GN.cpp)

@<TRIPOS>ATOM
      1 N          34.2517   43.8040   -6.5560 N.4         1 MOL       0.2351
      2 CA         34.5435   42.5990   -7.3522 C.3         1 MOL       0.0466
      3 P          33.3461   42.3456   -8.5048 P.3         1 MOL       0.0403
      4 O1P        33.2261   40.9469   -8.8237 O.co2       1 MOL      -0.6153
      5 O2P        32.0638   42.7240   -7.9674 O.co2       1 MOL      -0.6153
      6 CB         34.8062   41.3833   -6.4155 C.3         1 MOL       0.0407
      7 CG         35.8105   41.5916   -5.3258 C.ar        1 MOL      -0.0360
      8 CD1        37.0702   42.1857   -5.5846 C.ar        1 MOL      -0.0601
      9 CD2        35.5532   41.1264   -4.0128 C.ar        1 MOL      -0.0601
     10 CE1        38.0286   42.3268   -4.5637 C.ar        1 MOL      -0.0686
     11 CE2        36.5220   41.2341   -2.9991 C.ar        1 MOL      -0.0686
     12 CZ         37.7589   41.8417   -3.2717 C.ar        1 MOL      -0.0687
     13 CM         33.6603   43.1890   -9.9181 C.3         1 MOL       0.0402
     14 CA         32.5211   43.2069  -11.0008 C.3         1 MOL       0.0742
     15 CB         32.7904   44.3263  -12.0640 C.3         1 MOL       0.0021
     16 CG         31.6982   44.6446  -13.0344 C.ar        1 MOL      -0.0405
     17 CD1        32.0038   44.9086  -14.3923 C.ar        1 MOL      -0.0602
     18 CD2        30.3530   44.7965  -12.6112 C.ar        1 MOL      -0.0602
     19 CE1        30.9962   45.2697  -15.3048 C.ar        1 MOL      -0.0686
     20 CE2        29.3376   45.1175  -13.5308 C.ar        1 MOL      -0.0686
     21 CZ         29.6582   45.3543  -14.8785 C.ar        1 MOL      -0.0687
     22 C          32.2201   41.9228  -11.6563 C.2         1 MOL       0.1844
     23 O          31.0855   41.7807  -12.0956 O.2         1 MOL      -0.3964
     24 N          33.0852   40.9155  -11.7487 N.am        1 MOL      -0.2692
     25 CA         32.8017   39.5946  -12.2479 C.3         1 MOL       0.1038
     26 C          32.4732   38.7456  -11.0816 C.2         1 MOL       0.0621
     27 O          33.4193   38.4221  -10.1708 O.co2       1 MOL      -0.5664
     28 CB         33.9934   38.9964  -13.0486 C.3         1 MOL       0.0159
     29 CG         34.2640   39.4908  -14.4285 C.ar        1 MOL      -0.0392
     30 CD1        33.5556   40.5416  -15.0670 C.ar        1 MOL      -0.0602
     31 CD2        35.2889   38.8387  -15.1591 C.ar        1 MOL      -0.0602
     32 CE1        33.8550   40.9151  -16.3896 C.ar        1 MOL      -0.0686
     33 CE2        35.5871   39.2101  -16.4799 C.ar        1 MOL      -0.0686
     34 CZ         34.8705   40.2485  -17.0994 C.ar        1 MOL      -0.0687
     35 OXT        31.2322   38.2270  -10.9384 O.co2       1 MOL      -0.5664
     36 H1         34.9941   43.9487   -5.8697 H           1 MOL       0.2014
     37 H2         33.3637   43.7216   -6.0607 H           1 MOL       0.2014
     38 H3         34.2021   44.6176   -7.1645 H           1 MOL       0.2014
     39 H4         35.4645   42.7983   -7.9040 H           1 MOL       0.1089
     40 H5         35.1757   40.5523   -7.0225 H           1 MOL       0.0499
     41 H6         33.8511   41.0681   -5.9865 H           1 MOL       0.0499
     42 H7         37.3013   42.5211   -6.5223 H           1 MOL       0.0557
     43 H8         34.6650   40.6775   -3.7907 H           1 MOL       0.0557
     44 H9         38.9279   42.7719   -4.7648 H           1 MOL       0.0599
     45 H10        36.3306   40.8625   -2.0661 H           1 MOL       0.0599
     46 H11        38.4648   41.9265   -2.5329 H           1 MOL       0.0559
     47 H12        34.5853   42.8044  -10.3577 H           1 MOL       0.0496
     48 H13        33.8663   44.2154   -9.6088 H           1 MOL       0.0496
     49 H14        31.6278   43.5061  -10.4491 H           1 MOL       0.0576
     50 H15        33.7081   44.0622  -12.5983 H           1 MOL       0.0454
     51 H16        32.9931   45.2641  -11.5380 H           1 MOL       0.0454
     52 H17        32.9700   44.8709  -14.7250 H           1 MOL       0.0557
     53 H18        30.1008   44.6731  -11.6296 H           1 MOL       0.0557
     54 H19        31.2343   45.4798  -16.2765 H           1 MOL       0.0599
     55 H20        28.3675   45.1974  -13.2134 H           1 MOL       0.0599
     56 H21        28.9218   45.6046  -15.5432 H           1 MOL       0.0559
     57 H22        33.9509   41.0314  -11.3268 H           1 MOL       0.1876
     58 H23        31.9287   39.5984  -12.9094 H           1 MOL       0.0749
     59 H24        33.8137   37.9177  -13.1388 H           1 MOL       0.0467
     60 H25        34.9061   39.1218  -12.4593 H           1 MOL       0.0467
     61 H26        32.8071   41.0444  -14.5865 H           1 MOL       0.0557
     62 H27        35.8167   38.0717  -14.7371 H           1 MOL       0.0557
     63 H28        33.3317   41.6736  -16.8363 H           1 MOL       0.0599
     64 H29        36.3235   38.7243  -16.9958 H           1 MOL       0.0599
     65 H30        35.0809   40.5189  -18.0638 H           1 MOL       0.0559
@<TRIPOS>BOND
     1    24    25   1
     2    25    28   1
     3    25    26   1
     4    26    27  ar
     5    26    35  ar
     6    28    29   1
     7    29    30  ar
     8    29    31  ar
     9    31    33  ar
    10    33    34  ar
    11    32    34  ar
    12    30    32  ar
    13     2     1   1
    14     3     2   1
    15     2     6   1
    16     3     4  ar
    17     3     5  ar
    18    13     3   1
    19     6     7   1
    20     7     8  ar
    21     7     9  ar
    22     8    10  ar
    23     9    11  ar
    24    10    12  ar
    25    11    12  ar
    26    14    13   1
    27    14    15   1
    28    22    14   1
    29    15    16   1
    30    16    17  ar
    31    16    18  ar
    32    17    19  ar
    33    18    20  ar
    34    19    21  ar
    35    20    21  ar
    36    22    23   2
    37    22    24  am
    38     1    36   1
    39     1    37   1
    40     1    38   1
    41     2    39   1
    42     6    40   1
    43     6    41   1
    44     8    42   1
    45     9    43   1
    46    10    44   1
    47    11    45   1
    48    12    46   1
    49    13    47   1
    50    13    48   1
    51    14    49   1
    52    15    50   1
    53    15    51   1
    54    17    52   1
    55    18    53   1
    56    19    54   1
    57    20    55   1
    58    21    56   1
    59    24    57   1
    60    25    58   1
    61    28    59   1
    62    28    60   1
    63    30    61   1
    64    31    62   1
    65    32    63   1
    66    33    64   1
    67    34    65   1
@<TRIPOS>SUBSTRUCTURE
     1  MOL      2

