@<TRIPOS>MOLECULE
1os0_ligand_022
    65    67
SMALL
GAST_HUCK
****
This file was generated by PARSER (from files_GN.cpp)

@<TRIPOS>ATOM
      1 N          35.2462   44.8057   -1.8020 N.4         1 MOL       0.2351
      2 CA         36.4994   44.1600   -1.3365 C.3         1 MOL       0.0466
      3 P          36.5725   42.5943   -1.9419 P.3         1 MOL       0.0403
      4 O1P        35.2860   41.9267   -1.9072 O.co2       1 MOL      -0.6153
      5 O2P        36.8147   42.8588   -3.3482 O.co2       1 MOL      -0.6153
      6 CB         36.5710   44.3221    0.2080 C.3         1 MOL       0.0407
      7 CG         37.7296   43.7206    0.9281 C.ar        1 MOL      -0.0360
      8 CD1        37.5130   42.9349    2.0914 C.ar        1 MOL      -0.0601
      9 CD2        39.0576   43.9362    0.4920 C.ar        1 MOL      -0.0601
     10 CE1        38.5968   42.3680    2.7823 C.ar        1 MOL      -0.0686
     11 CE2        40.1374   43.3514    1.1747 C.ar        1 MOL      -0.0686
     12 CZ         39.9091   42.5581    2.3143 C.ar        1 MOL      -0.0687
     13 CM         37.8488   41.6053   -1.4612 C.3         1 MOL       0.0402
     14 CA         38.3436   40.3776   -2.3312 C.3         1 MOL       0.0742
     15 CB         37.8063   38.9823   -1.8577 C.3         1 MOL       0.0021
     16 CG         38.0920   37.7793   -2.7019 C.ar        1 MOL      -0.0405
     17 CD1        37.3358   36.6026   -2.4798 C.ar        1 MOL      -0.0602
     18 CD2        39.0848   37.7426   -3.7208 C.ar        1 MOL      -0.0602
     19 CE1        37.4907   35.4697   -3.3035 C.ar        1 MOL      -0.0686
     20 CE2        39.2433   36.6096   -4.5429 C.ar        1 MOL      -0.0686
     21 CZ         38.4309   35.4823   -4.3490 C.ar        1 MOL      -0.0687
     22 C          38.1613   40.5830   -3.7667 C.2         1 MOL       0.1844
     23 O          39.1292   40.8892   -4.4503 O.2         1 MOL      -0.3964
     24 N          36.9553   40.4398   -4.3106 N.am        1 MOL      -0.2692
     25 CA         36.5463   40.7079   -5.6627 C.3         1 MOL       0.1038
     26 C          36.7589   42.1461   -6.0134 C.2         1 MOL       0.0621
     27 O          37.9069   42.7757   -5.6542 O.co2       1 MOL      -0.5664
     28 CB         35.0611   40.2290   -5.7971 C.3         1 MOL       0.0159
     29 CG         34.4172   40.4941   -7.1164 C.ar        1 MOL      -0.0392
     30 CD1        34.9462   39.9326   -8.3021 C.ar        1 MOL      -0.0602
     31 CD2        33.2701   41.3216   -7.2149 C.ar        1 MOL      -0.0602
     32 CE1        34.3744   40.2275   -9.5546 C.ar        1 MOL      -0.0686
     33 CE2        32.6952   41.6127   -8.4653 C.ar        1 MOL      -0.0686
     34 CZ         33.2537   41.0730   -9.6370 C.ar        1 MOL      -0.0687
     35 OXT        35.8585   42.8812   -6.7105 O.co2       1 MOL      -0.5664
     36 H1         35.1994   45.7823   -1.4855 H           1 MOL       0.2014
     37 H2         34.4366   44.2974   -1.4278 H           1 MOL       0.2014
     38 H3         35.2083   44.7917   -2.8243 H           1 MOL       0.2014
     39 H4         37.3224   44.7318   -1.7737 H           1 MOL       0.1089
     40 H5         35.6259   43.9531    0.6293 H           1 MOL       0.0499
     41 H6         36.6209   45.3993    0.4083 H           1 MOL       0.0499
     42 H7         36.5647   42.7706    2.4445 H           1 MOL       0.0557
     43 H8         39.2472   44.5402   -0.3094 H           1 MOL       0.0557
     44 H9         38.4379   41.8225    3.6323 H           1 MOL       0.0599
     45 H10        41.0906   43.4900    0.8313 H           1 MOL       0.0599
     46 H11        40.7003   42.1461    2.8204 H           1 MOL       0.0559
     47 H12        37.6020   41.2160   -0.4724 H           1 MOL       0.0496
     48 H13        38.7078   42.2788   -1.3121 H           1 MOL       0.0496
     49 H14        39.4167   40.3251   -2.1416 H           1 MOL       0.0576
     50 H15        36.7224   39.0797   -1.7372 H           1 MOL       0.0454
     51 H16        38.2088   38.7747   -0.8602 H           1 MOL       0.0454
     52 H17        36.6450   36.5706   -1.7306 H           1 MOL       0.0557
     53 H18        39.7019   38.5391   -3.8811 H           1 MOL       0.0557
     54 H19        36.9124   34.6419   -3.1464 H           1 MOL       0.0599
     55 H20        39.9476   36.6118   -5.2827 H           1 MOL       0.0599
     56 H21        38.5325   34.6656   -4.9571 H           1 MOL       0.0559
     57 H22        36.2636   40.1034   -3.7180 H           1 MOL       0.1876
     58 H23        37.1562   40.0872   -6.3223 H           1 MOL       0.0749
     59 H24        34.4817   40.7017   -4.9966 H           1 MOL       0.0467
     60 H25        35.0171   39.1514   -5.6111 H           1 MOL       0.0467
     61 H26        35.7603   39.3161   -8.2630 H           1 MOL       0.0557
     62 H27        32.8599   41.7416   -6.3781 H           1 MOL       0.0557
     63 H28        34.7757   39.8308  -10.4070 H           1 MOL       0.0599
     64 H29        31.8779   42.2243   -8.5220 H           1 MOL       0.0599
     65 H30        32.8419   41.2927  -10.5475 H           1 MOL       0.0559
@<TRIPOS>BOND
     1    24    25   1
     2    25    28   1
     3    25    26   1
     4    26    27  ar
     5    26    35  ar
     6    28    29   1
     7    29    30  ar
     8    29    31  ar
     9    31    33  ar
    10    33    34  ar
    11    32    34  ar
    12    30    32  ar
    13     2     1   1
    14     3     2   1
    15     2     6   1
    16     3     4  ar
    17     3     5  ar
    18    13     3   1
    19     6     7   1
    20     7     8  ar
    21     7     9  ar
    22     8    10  ar
    23     9    11  ar
    24    10    12  ar
    25    11    12  ar
    26    14    13   1
    27    14    15   1
    28    22    14   1
    29    15    16   1
    30    16    17  ar
    31    16    18  ar
    32    17    19  ar
    33    18    20  ar
    34    19    21  ar
    35    20    21  ar
    36    22    23   2
    37    22    24  am
    38     1    36   1
    39     1    37   1
    40     1    38   1
    41     2    39   1
    42     6    40   1
    43     6    41   1
    44     8    42   1
    45     9    43   1
    46    10    44   1
    47    11    45   1
    48    12    46   1
    49    13    47   1
    50    13    48   1
    51    14    49   1
    52    15    50   1
    53    15    51   1
    54    17    52   1
    55    18    53   1
    56    19    54   1
    57    20    55   1
    58    21    56   1
    59    24    57   1
    60    25    58   1
    61    28    59   1
    62    28    60   1
    63    30    61   1
    64    31    62   1
    65    32    63   1
    66    33    64   1
    67    34    65   1
@<TRIPOS>SUBSTRUCTURE
     1  MOL      2

