@<TRIPOS>MOLECULE
1os0_ligand_054
    65    67
SMALL
GAST_HUCK
****
This file was generated by PARSER (from files_GN.cpp)

@<TRIPOS>ATOM
      1 N          33.5164   42.6612   -6.1192 N.4         1 MOL       0.2351
      2 CA         34.3851   42.4911   -7.3018 C.3         1 MOL       0.0466
      3 P          33.4937   42.1307   -8.6821 P.3         1 MOL       0.0403
      4 O1P        34.3115   41.3739   -9.6034 O.co2       1 MOL      -0.6153
      5 O2P        32.4349   41.2097   -8.3437 O.co2       1 MOL      -0.6153
      6 CB         35.5785   41.5212   -6.9933 C.3         1 MOL       0.0407
      7 CG         35.3552   40.0660   -7.2652 C.ar        1 MOL      -0.0360
      8 CD1        34.5403   39.2833   -6.4132 C.ar        1 MOL      -0.0601
      9 CD2        35.8819   39.4622   -8.4332 C.ar        1 MOL      -0.0601
     10 CE1        34.2136   37.9571   -6.7493 C.ar        1 MOL      -0.0686
     11 CE2        35.5606   38.1333   -8.7696 C.ar        1 MOL      -0.0686
     12 CZ         34.7169   37.3845   -7.9344 C.ar        1 MOL      -0.0687
     13 CM         32.8347   43.4379   -9.4929 C.3         1 MOL       0.0402
     14 CA         32.5682   43.3325  -11.0370 C.3         1 MOL       0.0742
     15 CB         33.8775   43.2790  -11.9020 C.3         1 MOL       0.0021
     16 CG         33.7317   43.6728  -13.3332 C.ar        1 MOL      -0.0405
     17 CD1        34.2238   44.9171  -13.7956 C.ar        1 MOL      -0.0602
     18 CD2        33.1956   42.7674  -14.2782 C.ar        1 MOL      -0.0602
     19 CE1        34.1873   45.2432  -15.1619 C.ar        1 MOL      -0.0686
     20 CE2        33.1472   43.0954  -15.6457 C.ar        1 MOL      -0.0686
     21 CZ         33.6506   44.3295  -16.0892 C.ar        1 MOL      -0.0687
     22 C          31.5913   42.2887  -11.3596 C.2         1 MOL       0.1844
     23 O          31.9282   41.1120  -11.3281 O.2         1 MOL      -0.3964
     24 N          30.3370   42.6262  -11.6412 N.am        1 MOL      -0.2692
     25 CA         29.2515   41.7800  -12.0641 C.3         1 MOL       0.1038
     26 C          28.9634   40.6578  -11.1332 C.2         1 MOL       0.0621
     27 O          29.7031   40.4457  -10.0180 O.co2       1 MOL      -0.5664
     28 CB         29.4224   41.3283  -13.5519 C.3         1 MOL       0.0159
     29 CG         28.1500   40.9917  -14.2576 C.ar        1 MOL      -0.0392
     30 CD1        27.0893   41.9278  -14.3090 C.ar        1 MOL      -0.0602
     31 CD2        27.9800   39.7481  -14.9139 C.ar        1 MOL      -0.0602
     32 CE1        25.8902   41.6284  -14.9838 C.ar        1 MOL      -0.0686
     33 CE2        26.7856   39.4488  -15.5948 C.ar        1 MOL      -0.0686
     34 CZ         25.7402   40.3903  -15.6300 C.ar        1 MOL      -0.0687
     35 OXT        27.7937   39.9867  -11.2317 O.co2       1 MOL      -0.5664
     36 H1         34.0690   42.9490   -5.3090 H           1 MOL       0.2014
     37 H2         33.0293   41.7950   -5.8788 H           1 MOL       0.2014
     38 H3         32.8407   43.4100   -6.2706 H           1 MOL       0.2014
     39 H4         34.8287   43.4767   -7.4635 H           1 MOL       0.1089
     40 H5         35.8760   41.6336   -5.9460 H           1 MOL       0.0499
     41 H6         36.4339   41.8727   -7.5807 H           1 MOL       0.0499
     42 H7         34.1558   39.6838   -5.5557 H           1 MOL       0.0557
     43 H8         36.4598   40.0005   -9.0817 H           1 MOL       0.0557
     44 H9         33.6034   37.4085   -6.1405 H           1 MOL       0.0599
     45 H10        35.9220   37.7224   -9.6344 H           1 MOL       0.0599
     46 H11        34.4670   36.4255   -8.1858 H           1 MOL       0.0559
     47 H12        33.5046   44.2861   -9.3335 H           1 MOL       0.0496
     48 H13        31.8954   43.6926   -8.9946 H           1 MOL       0.0496
     49 H14        32.1076   44.2964  -11.2951 H           1 MOL       0.0576
     50 H15        34.3030   42.2771  -11.8940 H           1 MOL       0.0454
     51 H16        34.6206   43.9263  -11.4293 H           1 MOL       0.0454
     52 H17        34.6342   45.5854  -13.1397 H           1 MOL       0.0557
     53 H18        32.8677   41.8458  -13.9863 H           1 MOL       0.0557
     54 H19        34.5561   46.1400  -15.4831 H           1 MOL       0.0599
     55 H20        32.7608   42.4282  -16.3162 H           1 MOL       0.0599
     56 H21        33.6298   44.5629  -17.0825 H           1 MOL       0.0559
     57 H22        30.1228   43.5714  -11.5720 H           1 MOL       0.1876
     58 H23        28.3754   42.4295  -12.0133 H           1 MOL       0.0749
     59 H24        30.1151   40.4810  -13.5823 H           1 MOL       0.0467
     60 H25        29.8937   42.1366  -14.1190 H           1 MOL       0.0467
     61 H26        27.1800   42.8417  -13.8591 H           1 MOL       0.0557
     62 H27        28.7266   39.0493  -14.9006 H           1 MOL       0.0557
     63 H28        25.1295   42.3109  -15.0018 H           1 MOL       0.0599
     64 H29        26.6730   38.5470  -16.0616 H           1 MOL       0.0599
     65 H30        24.8731   40.1729  -16.1260 H           1 MOL       0.0559
@<TRIPOS>BOND
     1    24    25   1
     2    25    28   1
     3    25    26   1
     4    26    27  ar
     5    26    35  ar
     6    28    29   1
     7    29    30  ar
     8    29    31  ar
     9    31    33  ar
    10    33    34  ar
    11    32    34  ar
    12    30    32  ar
    13     2     1   1
    14     3     2   1
    15     2     6   1
    16     3     4  ar
    17     3     5  ar
    18    13     3   1
    19     6     7   1
    20     7     8  ar
    21     7     9  ar
    22     8    10  ar
    23     9    11  ar
    24    10    12  ar
    25    11    12  ar
    26    14    13   1
    27    14    15   1
    28    22    14   1
    29    15    16   1
    30    16    17  ar
    31    16    18  ar
    32    17    19  ar
    33    18    20  ar
    34    19    21  ar
    35    20    21  ar
    36    22    23   2
    37    22    24  am
    38     1    36   1
    39     1    37   1
    40     1    38   1
    41     2    39   1
    42     6    40   1
    43     6    41   1
    44     8    42   1
    45     9    43   1
    46    10    44   1
    47    11    45   1
    48    12    46   1
    49    13    47   1
    50    13    48   1
    51    14    49   1
    52    15    50   1
    53    15    51   1
    54    17    52   1
    55    18    53   1
    56    19    54   1
    57    20    55   1
    58    21    56   1
    59    24    57   1
    60    25    58   1
    61    28    59   1
    62    28    60   1
    63    30    61   1
    64    31    62   1
    65    32    63   1
    66    33    64   1
    67    34    65   1
@<TRIPOS>SUBSTRUCTURE
     1  MOL      2

