@<TRIPOS>MOLECULE
1os0_ligand_063
    65    67
SMALL
GAST_HUCK
****
This file was generated by PARSER (from files_GN.cpp)

@<TRIPOS>ATOM
      1 N          34.0611   45.0869  -14.4068 N.4         1 MOL       0.2351
      2 CA         32.7181   44.6808  -14.8548 C.3         1 MOL       0.0466
      3 P          32.3922   43.1197  -14.3600 P.3         1 MOL       0.0403
      4 O1P        31.0331   42.7923  -14.7024 O.co2       1 MOL      -0.6153
      5 O2P        33.1402   42.2020  -15.1812 O.co2       1 MOL      -0.6153
      6 CB         32.5833   44.9110  -16.4012 C.3         1 MOL       0.0407
      7 CG         31.7972   46.1341  -16.7094 C.ar        1 MOL      -0.0360
      8 CD1        30.3822   46.0899  -16.7041 C.ar        1 MOL      -0.0601
      9 CD2        32.4363   47.3762  -16.9261 C.ar        1 MOL      -0.0601
     10 CE1        29.6240   47.2554  -16.9224 C.ar        1 MOL      -0.0686
     11 CE2        31.6771   48.5421  -17.1395 C.ar        1 MOL      -0.0686
     12 CZ         30.2721   48.4833  -17.1363 C.ar        1 MOL      -0.0687
     13 CM         32.7276   42.7484  -12.7635 C.3         1 MOL       0.0402
     14 CA         32.2400   43.7167  -11.6217 C.3         1 MOL       0.0742
     15 CB         30.7231   43.5997  -11.2400 C.3         1 MOL       0.0021
     16 CG         29.7320   43.7403  -12.3398 C.ar        1 MOL      -0.0405
     17 CD1        28.8379   42.6886  -12.6517 C.ar        1 MOL      -0.0602
     18 CD2        29.6503   44.9438  -13.0782 C.ar        1 MOL      -0.0602
     19 CE1        27.9289   42.8134  -13.7169 C.ar        1 MOL      -0.0686
     20 CE2        28.7246   45.0759  -14.1287 C.ar        1 MOL      -0.0686
     21 CZ         27.8739   44.0056  -14.4600 C.ar        1 MOL      -0.0687
     22 C          33.0214   43.5412  -10.3910 C.2         1 MOL       0.1844
     23 O          33.7819   44.4468  -10.0676 O.2         1 MOL      -0.3964
     24 N          32.9215   42.4416   -9.6451 N.am        1 MOL      -0.2692
     25 CA         33.6801   42.1123   -8.4657 C.3         1 MOL       0.1038
     26 C          34.8768   42.9837   -8.2908 C.2         1 MOL       0.0621
     27 O          35.2493   43.3834   -7.0510 O.co2       1 MOL      -0.5664
     28 CB         34.1334   40.6095   -8.5060 C.3         1 MOL       0.0159
     29 CG         33.1357   39.6325   -7.9778 C.ar        1 MOL      -0.0392
     30 CD1        32.0926   39.1436   -8.8016 C.ar        1 MOL      -0.0602
     31 CD2        33.2288   39.1371   -6.6521 C.ar        1 MOL      -0.0602
     32 CE1        31.1743   38.1913   -8.3180 C.ar        1 MOL      -0.0686
     33 CE2        32.3174   38.1789   -6.1700 C.ar        1 MOL      -0.0686
     34 CZ         31.2917   37.7030   -7.0051 C.ar        1 MOL      -0.0687
     35 OXT        35.5994   43.4500   -9.3386 O.co2       1 MOL      -0.5664
     36 H1         34.2153   46.0595  -14.6779 H           1 MOL       0.2014
     37 H2         34.7701   44.5032  -14.8550 H           1 MOL       0.2014
     38 H3         34.1455   45.0027  -13.3905 H           1 MOL       0.2014
     39 H4         32.0121   45.3207  -14.3198 H           1 MOL       0.1089
     40 H5         32.1075   44.0689  -16.9106 H           1 MOL       0.0499
     41 H6         33.5753   44.9884  -16.8583 H           1 MOL       0.0499
     42 H7         29.8933   45.2060  -16.5297 H           1 MOL       0.0557
     43 H8         33.4563   47.4408  -16.9148 H           1 MOL       0.0557
     44 H9         28.6038   47.2092  -16.9141 H           1 MOL       0.0599
     45 H10        32.1484   49.4354  -17.2841 H           1 MOL       0.0599
     46 H11        29.7242   49.3300  -17.2842 H           1 MOL       0.0559
     47 H12        33.8175   42.6803  -12.7212 H           1 MOL       0.0496
     48 H13        32.3354   41.7444  -12.5666 H           1 MOL       0.0496
     49 H14        32.4180   44.7425  -11.9598 H           1 MOL       0.0576
     50 H15        30.4821   44.3920  -10.5233 H           1 MOL       0.0454
     51 H16        30.5798   42.6487  -10.7136 H           1 MOL       0.0454
     52 H17        28.8836   41.8029  -12.1474 H           1 MOL       0.0557
     53 H18        30.2574   45.7341  -12.8544 H           1 MOL       0.0557
     54 H19        27.3108   42.0372  -13.9563 H           1 MOL       0.0599
     55 H20        28.6812   45.9435  -14.6673 H           1 MOL       0.0599
     56 H21        27.2152   44.0961  -15.2400 H           1 MOL       0.0559
     57 H22        32.2953   41.7677   -9.9558 H           1 MOL       0.1876
     58 H23        33.0343   42.2703   -7.6024 H           1 MOL       0.0749
     59 H24        35.0704   40.4855   -7.9460 H           1 MOL       0.0467
     60 H25        34.3797   40.3227   -9.5357 H           1 MOL       0.0467
     61 H26        31.9967   39.4700   -9.7667 H           1 MOL       0.0557
     62 H27        33.9715   39.4577   -6.0277 H           1 MOL       0.0557
     63 H28        30.4270   37.8488   -8.9239 H           1 MOL       0.0599
     64 H29        32.4056   37.8227   -5.2150 H           1 MOL       0.0599
     65 H30        30.6326   37.0037   -6.6573 H           1 MOL       0.0559
@<TRIPOS>BOND
     1    24    25   1
     2    25    28   1
     3    25    26   1
     4    26    27  ar
     5    26    35  ar
     6    28    29   1
     7    29    30  ar
     8    29    31  ar
     9    31    33  ar
    10    33    34  ar
    11    32    34  ar
    12    30    32  ar
    13     2     1   1
    14     3     2   1
    15     2     6   1
    16     3     4  ar
    17     3     5  ar
    18    13     3   1
    19     6     7   1
    20     7     8  ar
    21     7     9  ar
    22     8    10  ar
    23     9    11  ar
    24    10    12  ar
    25    11    12  ar
    26    14    13   1
    27    14    15   1
    28    22    14   1
    29    15    16   1
    30    16    17  ar
    31    16    18  ar
    32    17    19  ar
    33    18    20  ar
    34    19    21  ar
    35    20    21  ar
    36    22    23   2
    37    22    24  am
    38     1    36   1
    39     1    37   1
    40     1    38   1
    41     2    39   1
    42     6    40   1
    43     6    41   1
    44     8    42   1
    45     9    43   1
    46    10    44   1
    47    11    45   1
    48    12    46   1
    49    13    47   1
    50    13    48   1
    51    14    49   1
    52    15    50   1
    53    15    51   1
    54    17    52   1
    55    18    53   1
    56    19    54   1
    57    20    55   1
    58    21    56   1
    59    24    57   1
    60    25    58   1
    61    28    59   1
    62    28    60   1
    63    30    61   1
    64    31    62   1
    65    32    63   1
    66    33    64   1
    67    34    65   1
@<TRIPOS>SUBSTRUCTURE
     1  MOL      2

