@<TRIPOS>MOLECULE
1os0_ligand_053
    65    67
SMALL
GAST_HUCK
****
This file was generated by PARSER (from files_GN.cpp)

@<TRIPOS>ATOM
      1 N          34.6991   41.5912   -3.5164 N.4         1 MOL       0.2351
      2 CA         35.7596   42.1140   -4.3868 C.3         1 MOL       0.0466
      3 P          35.4709   41.7370   -5.9956 P.3         1 MOL       0.0403
      4 O1P        36.0189   42.8670   -6.7107 O.co2       1 MOL      -0.6153
      5 O2P        36.1952   40.5618   -6.4441 O.co2       1 MOL      -0.6153
      6 CB         37.1904   41.7263   -3.8693 C.3         1 MOL       0.0407
      7 CG         37.2946   40.4168   -3.1512 C.ar        1 MOL      -0.0360
      8 CD1        37.7208   39.2436   -3.8171 C.ar        1 MOL      -0.0601
      9 CD2        36.9638   40.3331   -1.7756 C.ar        1 MOL      -0.0601
     10 CE1        37.8040   38.0180   -3.1288 C.ar        1 MOL      -0.0686
     11 CE2        37.0538   39.1099   -1.0856 C.ar        1 MOL      -0.0686
     12 CZ         37.4717   37.9510   -1.7641 C.ar        1 MOL      -0.0687
     13 CM         33.8500   41.6921   -6.4428 C.3         1 MOL       0.0402
     14 CA         33.4205   41.7227   -7.9700 C.3         1 MOL       0.0742
     15 CB         34.5531   42.0819   -8.9852 C.3         1 MOL       0.0021
     16 CG         34.1113   42.2921  -10.3952 C.ar        1 MOL      -0.0405
     17 CD1        33.7042   41.1957  -11.1976 C.ar        1 MOL      -0.0602
     18 CD2        34.1635   43.5869  -10.9772 C.ar        1 MOL      -0.0602
     19 CE1        33.3586   41.3944  -12.5490 C.ar        1 MOL      -0.0686
     20 CE2        33.8315   43.7779  -12.3332 C.ar        1 MOL      -0.0686
     21 CZ         33.4248   42.6821  -13.1195 C.ar        1 MOL      -0.0687
     22 C          32.7073   40.5033   -8.3582 C.2         1 MOL       0.1844
     23 O          33.2736   39.4255   -8.2369 O.2         1 MOL      -0.3964
     24 N          31.4960   40.5899   -8.9005 N.am        1 MOL      -0.2692
     25 CA         30.6495   39.5538   -9.4344 C.3         1 MOL       0.1038
     26 C          30.5900   38.3577   -8.5568 C.2         1 MOL       0.0621
     27 O          31.6980   37.6153   -8.3079 O.co2       1 MOL      -0.5664
     28 CB         30.9915   39.1800  -10.9150 C.3         1 MOL       0.0159
     29 CG         29.9140   38.4189  -11.6144 C.ar        1 MOL      -0.0392
     30 CD1        28.6671   39.0350  -11.8841 C.ar        1 MOL      -0.0602
     31 CD2        30.1207   37.0852  -12.0406 C.ar        1 MOL      -0.0602
     32 CE1        27.6520   38.3352  -12.5609 C.ar        1 MOL      -0.0686
     33 CE2        29.1026   36.3815  -12.7088 C.ar        1 MOL      -0.0686
     34 CZ         27.8711   37.0094  -12.9781 C.ar        1 MOL      -0.0687
     35 OXT        29.3936   37.8681   -8.1580 O.co2       1 MOL      -0.5664
     36 H1         34.8469   41.9412   -2.5647 H           1 MOL       0.2014
     37 H2         34.7368   40.5686   -3.5146 H           1 MOL       0.2014
     38 H3         33.7886   41.9064   -3.8547 H           1 MOL       0.2014
     39 H4         35.6783   43.2022   -4.3100 H           1 MOL       0.1089
     40 H5         37.5172   42.5115   -3.1764 H           1 MOL       0.0499
     41 H6         37.9248   41.7568   -4.6877 H           1 MOL       0.0499
     42 H7         37.9787   39.2713   -4.8034 H           1 MOL       0.0557
     43 H8         36.6555   41.1623   -1.2655 H           1 MOL       0.0557
     44 H9         38.1190   37.1773   -3.6146 H           1 MOL       0.0599
     45 H10        36.8129   39.0614   -0.0916 H           1 MOL       0.0599
     46 H11        37.5347   37.0582   -1.2585 H           1 MOL       0.0559
     47 H12        33.3660   42.5422   -5.9374 H           1 MOL       0.0496
     48 H13        33.4304   40.7850   -5.9765 H           1 MOL       0.0496
     49 H14        32.7048   42.5517   -8.0409 H           1 MOL       0.0576
     50 H15        35.3176   41.3076   -8.9719 H           1 MOL       0.0454
     51 H16        35.0463   42.9841   -8.6163 H           1 MOL       0.0454
     52 H17        33.6906   40.2426  -10.8069 H           1 MOL       0.0557
     53 H18        34.4598   44.4070  -10.4268 H           1 MOL       0.0557
     54 H19        33.0818   40.5942  -13.1205 H           1 MOL       0.0599
     55 H20        33.8992   44.7155  -12.7435 H           1 MOL       0.0599
     56 H21        33.1999   42.8177  -14.1111 H           1 MOL       0.0559
     57 H22        31.1275   41.4829   -8.9749 H           1 MOL       0.1876
     58 H23        29.6430   40.0005   -9.4520 H           1 MOL       0.0749
     59 H24        31.9326   38.6183  -10.9410 H           1 MOL       0.0467
     60 H25        31.1601   40.1038  -11.4847 H           1 MOL       0.0467
     61 H26        28.4902   39.9969  -11.5878 H           1 MOL       0.0557
     62 H27        31.0068   36.6128  -11.8484 H           1 MOL       0.0557
     63 H28        26.7567   38.7877  -12.7540 H           1 MOL       0.0599
     64 H29        29.2595   35.4164  -13.0080 H           1 MOL       0.0599
     65 H30        27.1363   36.4973  -13.4753 H           1 MOL       0.0559
@<TRIPOS>BOND
     1    24    25   1
     2    25    28   1
     3    25    26   1
     4    26    27  ar
     5    26    35  ar
     6    28    29   1
     7    29    30  ar
     8    29    31  ar
     9    31    33  ar
    10    33    34  ar
    11    32    34  ar
    12    30    32  ar
    13     2     1   1
    14     3     2   1
    15     2     6   1
    16     3     4  ar
    17     3     5  ar
    18    13     3   1
    19     6     7   1
    20     7     8  ar
    21     7     9  ar
    22     8    10  ar
    23     9    11  ar
    24    10    12  ar
    25    11    12  ar
    26    14    13   1
    27    14    15   1
    28    22    14   1
    29    15    16   1
    30    16    17  ar
    31    16    18  ar
    32    17    19  ar
    33    18    20  ar
    34    19    21  ar
    35    20    21  ar
    36    22    23   2
    37    22    24  am
    38     1    36   1
    39     1    37   1
    40     1    38   1
    41     2    39   1
    42     6    40   1
    43     6    41   1
    44     8    42   1
    45     9    43   1
    46    10    44   1
    47    11    45   1
    48    12    46   1
    49    13    47   1
    50    13    48   1
    51    14    49   1
    52    15    50   1
    53    15    51   1
    54    17    52   1
    55    18    53   1
    56    19    54   1
    57    20    55   1
    58    21    56   1
    59    24    57   1
    60    25    58   1
    61    28    59   1
    62    28    60   1
    63    30    61   1
    64    31    62   1
    65    32    63   1
    66    33    64   1
    67    34    65   1
@<TRIPOS>SUBSTRUCTURE
     1  MOL      2

