@<TRIPOS>MOLECULE
1os0_ligand_078
    65    67
SMALL
GAST_HUCK
****
This file was generated by PARSER (from files_GN.cpp)

@<TRIPOS>ATOM
      1 N          33.5945   40.4616   -6.5297 N.4         1 MOL       0.2351
      2 CA         33.7543   41.9203   -6.4739 C.3         1 MOL       0.0466
      3 P          34.2367   42.5561   -7.9558 P.3         1 MOL       0.0403
      4 O1P        33.3226   43.6225   -8.2907 O.co2       1 MOL      -0.6153
      5 O2P        35.4625   43.2923   -7.8043 O.co2       1 MOL      -0.6153
      6 CB         34.6115   42.3410   -5.2332 C.3         1 MOL       0.0407
      7 CG         35.9300   41.6649   -5.0281 C.ar        1 MOL      -0.0360
      8 CD1        36.0137   40.2705   -4.7914 C.ar        1 MOL      -0.0601
      9 CD2        37.1288   42.4174   -4.9786 C.ar        1 MOL      -0.0601
     10 CE1        37.2514   39.6468   -4.5432 C.ar        1 MOL      -0.0686
     11 CE2        38.3660   41.7978   -4.7263 C.ar        1 MOL      -0.0686
     12 CZ         38.4306   40.4098   -4.5164 C.ar        1 MOL      -0.0687
     13 CM         34.3587   41.5081   -9.2638 C.3         1 MOL       0.0402
     14 CA         33.2130   41.5824  -10.3421 C.3         1 MOL       0.0742
     15 CB         33.4437   42.7502  -11.3793 C.3         1 MOL       0.0021
     16 CG         32.2171   43.5013  -11.7857 C.ar        1 MOL      -0.0405
     17 CD1        32.2017   44.9200  -11.7877 C.ar        1 MOL      -0.0602
     18 CD2        31.0550   42.8209  -12.2198 C.ar        1 MOL      -0.0602
     19 CE1        31.0625   45.6309  -12.2045 C.ar        1 MOL      -0.0686
     20 CE2        29.9029   43.5309  -12.6124 C.ar        1 MOL      -0.0686
     21 CZ         29.9064   44.9364  -12.6052 C.ar        1 MOL      -0.0687
     22 C          33.0697   40.2884  -11.0218 C.2         1 MOL       0.1844
     23 O          33.9874   39.9018  -11.7376 O.2         1 MOL      -0.3964
     24 N          31.9886   39.5363  -10.8444 N.am        1 MOL      -0.2692
     25 CA         31.7295   38.2456  -11.4224 C.3         1 MOL       0.1038
     26 C          31.1155   38.4441  -12.7535 C.2         1 MOL       0.0621
     27 O          31.7409   38.0188  -13.8753 O.co2       1 MOL      -0.5664
     28 CB         30.7995   37.3954  -10.5072 C.3         1 MOL       0.0159
     29 CG         31.3787   37.1267   -9.1600 C.ar        1 MOL      -0.0392
     30 CD1        31.2493   38.0754   -8.1162 C.ar        1 MOL      -0.0602
     31 CD2        32.0584   35.9145   -8.8899 C.ar        1 MOL      -0.0602
     32 CE1        31.7752   37.8136   -6.8374 C.ar        1 MOL      -0.0686
     33 CE2        32.5898   35.6548   -7.6107 C.ar        1 MOL      -0.0686
     34 CZ         32.4440   36.6031   -6.5845 C.ar        1 MOL      -0.0687
     35 OXT        29.9272   39.0760  -12.8838 O.co2       1 MOL      -0.5664
     36 H1         33.2877   40.1373   -5.6138 H           1 MOL       0.2014
     37 H2         34.4830   40.0170   -6.7669 H           1 MOL       0.2014
     38 H3         32.8905   40.2086   -7.2288 H           1 MOL       0.2014
     39 H4         32.7458   42.2996   -6.2857 H           1 MOL       0.1089
     40 H5         34.0233   42.1676   -4.3284 H           1 MOL       0.0499
     41 H6         34.7494   43.4261   -5.2829 H           1 MOL       0.0499
     42 H7         35.1700   39.6950   -4.7751 H           1 MOL       0.0557
     43 H8         37.1106   43.4289   -5.1163 H           1 MOL       0.0557
     44 H9         37.2928   38.6393   -4.3749 H           1 MOL       0.0599
     45 H10        39.2231   42.3560   -4.7053 H           1 MOL       0.0599
     46 H11        39.3298   39.9574   -4.3420 H           1 MOL       0.0559
     47 H12        34.4465   40.4950   -8.8674 H           1 MOL       0.0496
     48 H13        35.3068   41.6998   -9.7614 H           1 MOL       0.0496
     49 H14        32.2758   41.7842   -9.8076 H           1 MOL       0.0576
     50 H15        33.9167   42.3706  -12.2892 H           1 MOL       0.0454
     51 H16        34.1673   43.4574  -10.9642 H           1 MOL       0.0454
     52 H17        33.0276   45.4502  -11.5005 H           1 MOL       0.0557
     53 H18        31.0378   41.8020  -12.2606 H           1 MOL       0.0557
     54 H19        31.0739   46.6539  -12.2182 H           1 MOL       0.0599
     55 H20        29.0670   43.0245  -12.9136 H           1 MOL       0.0599
     56 H21        29.0741   45.4549  -12.9010 H           1 MOL       0.0559
     57 H22        31.2854   39.9031  -10.2859 H           1 MOL       0.1876
     58 H23        32.6652   37.6898  -11.5489 H           1 MOL       0.0749
     59 H24        30.5906   36.4421  -11.0029 H           1 MOL       0.0467
     60 H25        29.8342   37.8964  -10.3902 H           1 MOL       0.0467
     61 H26        30.7633   38.9604   -8.2796 H           1 MOL       0.0557
     62 H27        32.1715   35.2100   -9.6235 H           1 MOL       0.0557
     63 H28        31.6722   38.5023   -6.0892 H           1 MOL       0.0599
     64 H29        33.0801   34.7763   -7.4287 H           1 MOL       0.0599
     65 H30        32.8226   36.4146   -5.6534 H           1 MOL       0.0559
@<TRIPOS>BOND
     1    24    25   1
     2    25    28   1
     3    25    26   1
     4    26    27  ar
     5    26    35  ar
     6    28    29   1
     7    29    30  ar
     8    29    31  ar
     9    31    33  ar
    10    33    34  ar
    11    32    34  ar
    12    30    32  ar
    13     2     1   1
    14     3     2   1
    15     2     6   1
    16     3     4  ar
    17     3     5  ar
    18    13     3   1
    19     6     7   1
    20     7     8  ar
    21     7     9  ar
    22     8    10  ar
    23     9    11  ar
    24    10    12  ar
    25    11    12  ar
    26    14    13   1
    27    14    15   1
    28    22    14   1
    29    15    16   1
    30    16    17  ar
    31    16    18  ar
    32    17    19  ar
    33    18    20  ar
    34    19    21  ar
    35    20    21  ar
    36    22    23   2
    37    22    24  am
    38     1    36   1
    39     1    37   1
    40     1    38   1
    41     2    39   1
    42     6    40   1
    43     6    41   1
    44     8    42   1
    45     9    43   1
    46    10    44   1
    47    11    45   1
    48    12    46   1
    49    13    47   1
    50    13    48   1
    51    14    49   1
    52    15    50   1
    53    15    51   1
    54    17    52   1
    55    18    53   1
    56    19    54   1
    57    20    55   1
    58    21    56   1
    59    24    57   1
    60    25    58   1
    61    28    59   1
    62    28    60   1
    63    30    61   1
    64    31    62   1
    65    32    63   1
    66    33    64   1
    67    34    65   1
@<TRIPOS>SUBSTRUCTURE
     1  MOL      2

