@<TRIPOS>MOLECULE
1os0_ligand_026
    65    67
SMALL
GAST_HUCK
****
This file was generated by PARSER (from files_GN.cpp)

@<TRIPOS>ATOM
      1 N          46.8540   39.5405   -1.8561 N.4         1 MOL       0.2351
      2 CA         45.9353   38.4111   -2.1020 C.3         1 MOL       0.0466
      3 P          44.6602   38.8884   -3.1002 P.3         1 MOL       0.0403
      4 O1P        44.3447   40.2914   -2.9632 O.co2       1 MOL      -0.6153
      5 O2P        45.1383   38.7740   -4.4628 O.co2       1 MOL      -0.6153
      6 CB         45.4856   37.7793   -0.7420 C.3         1 MOL       0.0407
      7 CG         46.5341   37.6629    0.3177 C.ar        1 MOL      -0.0360
      8 CD1        47.8011   37.1006    0.0273 C.ar        1 MOL      -0.0601
      9 CD2        46.2631   38.0585    1.6508 C.ar        1 MOL      -0.0601
     10 CE1        48.7746   36.9587    1.0363 C.ar        1 MOL      -0.0686
     11 CE2        47.2282   37.8987    2.6600 C.ar        1 MOL      -0.0686
     12 CZ         48.4878   37.3578    2.3529 C.ar        1 MOL      -0.0687
     13 CM         43.2522   37.9879   -2.9936 C.3         1 MOL       0.0402
     14 CA         41.8781   38.7139   -3.2312 C.3         1 MOL       0.0742
     15 CB         41.5517   39.0116   -4.7464 C.3         1 MOL       0.0021
     16 CG         40.2058   38.6277   -5.2652 C.ar        1 MOL      -0.0405
     17 CD1        39.0240   39.1781   -4.7082 C.ar        1 MOL      -0.0602
     18 CD2        40.0775   37.7027   -6.3315 C.ar        1 MOL      -0.0602
     19 CE1        37.7550   38.7609   -5.1521 C.ar        1 MOL      -0.0686
     20 CE2        38.8072   37.2938   -6.7846 C.ar        1 MOL      -0.0686
     21 CZ         37.6467   37.8067   -6.1802 C.ar        1 MOL      -0.0687
     22 C          40.8186   37.9765   -2.5292 C.2         1 MOL       0.1844
     23 O          40.0067   38.5975   -1.8503 O.2         1 MOL      -0.3964
     24 N          40.7677   36.6525   -2.6022 N.am        1 MOL      -0.2692
     25 CA         39.8335   35.7811   -1.9528 C.3         1 MOL       0.1038
     26 C          40.5534   35.1093   -0.8482 C.2         1 MOL       0.0621
     27 O          41.6519   34.3587   -1.0914 O.co2       1 MOL      -0.5664
     28 CB         39.2437   34.7864   -2.9956 C.3         1 MOL       0.0159
     29 CG         38.0378   34.0543   -2.5137 C.ar        1 MOL      -0.0392
     30 CD1        36.7597   34.3179   -3.0645 C.ar        1 MOL      -0.0602
     31 CD2        38.1423   33.0882   -1.4828 C.ar        1 MOL      -0.0602
     32 CE1        35.6151   33.6633   -2.5727 C.ar        1 MOL      -0.0686
     33 CE2        36.9970   32.4355   -0.9896 C.ar        1 MOL      -0.0686
     34 CZ         35.7326   32.7305   -1.5259 C.ar        1 MOL      -0.0687
     35 OXT        40.1384   35.2547    0.4305 O.co2       1 MOL      -0.5664
     36 H1         47.7170   39.1946   -1.4221 H           1 MOL       0.2014
     37 H2         46.4056   40.2084   -1.2212 H           1 MOL       0.2014
     38 H3         47.0965   40.0144   -2.7256 H           1 MOL       0.2014
     39 H4         46.5149   37.6534   -2.6398 H           1 MOL       0.1089
     40 H5         45.1262   36.7656   -0.9294 H           1 MOL       0.0499
     41 H6         44.6384   38.3551   -0.3617 H           1 MOL       0.0499
     42 H7         48.0241   36.7892   -0.9191 H           1 MOL       0.0557
     43 H8         45.3527   38.4541    1.9012 H           1 MOL       0.0557
     44 H9         49.6881   36.5568    0.8118 H           1 MOL       0.0599
     45 H10        47.0128   38.1735    3.6219 H           1 MOL       0.0599
     46 H11        49.1929   37.2483    3.0874 H           1 MOL       0.0559
     47 H12        43.2378   37.5802   -1.9771 H           1 MOL       0.0496
     48 H13        43.3450   37.1386   -3.6789 H           1 MOL       0.0496
     49 H14        41.9585   39.6906   -2.7346 H           1 MOL       0.0576
     50 H15        42.3167   38.5340   -5.3632 H           1 MOL       0.0454
     51 H16        41.6653   40.0859   -4.9141 H           1 MOL       0.0454
     52 H17        39.0852   39.8707   -3.9599 H           1 MOL       0.0557
     53 H18        40.9042   37.3079   -6.7827 H           1 MOL       0.0557
     54 H19        36.9116   39.1526   -4.7316 H           1 MOL       0.0599
     55 H20        38.7317   36.6199   -7.5526 H           1 MOL       0.0599
     56 H21        36.7251   37.4957   -6.4992 H           1 MOL       0.0559
     57 H22        41.4551   36.2221   -3.1320 H           1 MOL       0.1876
     58 H23        38.9975   36.3527   -1.5270 H           1 MOL       0.0749
     59 H24        40.0081   34.0685   -3.3087 H           1 MOL       0.0467
     60 H25        38.9794   35.3648   -3.8868 H           1 MOL       0.0467
     61 H26        36.6540   34.9985   -3.8196 H           1 MOL       0.0557
     62 H27        39.0536   32.8579   -1.0817 H           1 MOL       0.0557
     63 H28        34.6962   33.8702   -2.9701 H           1 MOL       0.0599
     64 H29        37.0850   31.7483   -0.2369 H           1 MOL       0.0599
     65 H30        34.8986   32.2669   -1.1570 H           1 MOL       0.0559
@<TRIPOS>BOND
     1    24    25   1
     2    25    28   1
     3    25    26   1
     4    26    27  ar
     5    26    35  ar
     6    28    29   1
     7    29    30  ar
     8    29    31  ar
     9    31    33  ar
    10    33    34  ar
    11    32    34  ar
    12    30    32  ar
    13     2     1   1
    14     3     2   1
    15     2     6   1
    16     3     4  ar
    17     3     5  ar
    18    13     3   1
    19     6     7   1
    20     7     8  ar
    21     7     9  ar
    22     8    10  ar
    23     9    11  ar
    24    10    12  ar
    25    11    12  ar
    26    14    13   1
    27    14    15   1
    28    22    14   1
    29    15    16   1
    30    16    17  ar
    31    16    18  ar
    32    17    19  ar
    33    18    20  ar
    34    19    21  ar
    35    20    21  ar
    36    22    23   2
    37    22    24  am
    38     1    36   1
    39     1    37   1
    40     1    38   1
    41     2    39   1
    42     6    40   1
    43     6    41   1
    44     8    42   1
    45     9    43   1
    46    10    44   1
    47    11    45   1
    48    12    46   1
    49    13    47   1
    50    13    48   1
    51    14    49   1
    52    15    50   1
    53    15    51   1
    54    17    52   1
    55    18    53   1
    56    19    54   1
    57    20    55   1
    58    21    56   1
    59    24    57   1
    60    25    58   1
    61    28    59   1
    62    28    60   1
    63    30    61   1
    64    31    62   1
    65    32    63   1
    66    33    64   1
    67    34    65   1
@<TRIPOS>SUBSTRUCTURE
     1  MOL      2

