@<TRIPOS>MOLECULE
1os0_ligand_089
    65    67
SMALL
GAST_HUCK
****
This file was generated by PARSER (from files_GN.cpp)

@<TRIPOS>ATOM
      1 N          35.4612   39.8323   -5.5968 N.4         1 MOL       0.2351
      2 CA         35.2227   41.2910   -5.6109 C.3         1 MOL       0.0466
      3 P          34.9459   41.8156   -7.1867 P.3         1 MOL       0.0403
      4 O1P        35.6276   43.0572   -7.4395 O.co2       1 MOL      -0.6153
      5 O2P        35.5333   40.8676   -8.1002 O.co2       1 MOL      -0.6153
      6 CB         36.3556   42.0533   -4.8510 C.3         1 MOL       0.0407
      7 CG         36.8159   41.4029   -3.5873 C.ar        1 MOL      -0.0360
      8 CD1        35.9607   41.3160   -2.4622 C.ar        1 MOL      -0.0601
      9 CD2        38.1154   40.8508   -3.4878 C.ar        1 MOL      -0.0601
     10 CE1        36.3887   40.6859   -1.2776 C.ar        1 MOL      -0.0686
     11 CE2        38.5442   40.2234   -2.3034 C.ar        1 MOL      -0.0686
     12 CZ         37.6821   40.1414   -1.1958 C.ar        1 MOL      -0.0687
     13 CM         33.3087   42.0049   -7.4776 C.3         1 MOL       0.0402
     14 CA         32.7785   42.0301   -8.9544 C.3         1 MOL       0.0742
     15 CB         33.2065   43.2689   -9.8263 C.3         1 MOL       0.0021
     16 CG         32.2232   43.8008  -10.8305 C.ar        1 MOL      -0.0405
     17 CD1        32.3250   45.1522  -11.2463 C.ar        1 MOL      -0.0602
     18 CD2        31.1737   43.0232  -11.3832 C.ar        1 MOL      -0.0602
     19 CE1        31.3683   45.7330  -12.1020 C.ar        1 MOL      -0.0686
     20 CE2        30.2197   43.5971  -12.2497 C.ar        1 MOL      -0.0686
     21 CZ         30.3034   44.9582  -12.5912 C.ar        1 MOL      -0.0687
     22 C          33.0032   40.7328   -9.5933 C.2         1 MOL       0.1844
     23 O          33.9426   40.5772  -10.3642 O.2         1 MOL      -0.3964
     24 N          32.1966   39.7257   -9.2716 N.am        1 MOL      -0.2692
     25 CA         32.2030   38.3738   -9.7485 C.3         1 MOL       0.1038
     26 C          33.3566   37.6254   -9.1948 C.2         1 MOL       0.0621
     27 O          34.5786   37.7295   -9.7678 O.co2       1 MOL      -0.5664
     28 CB         32.0575   38.2855  -11.2998 C.3         1 MOL       0.0159
     29 CG         31.6995   36.9271  -11.7940 C.ar        1 MOL      -0.0392
     30 CD1        30.3768   36.4416  -11.6511 C.ar        1 MOL      -0.0602
     31 CD2        32.6585   36.1051  -12.4335 C.ar        1 MOL      -0.0602
     32 CE1        30.0200   35.1732  -12.1450 C.ar        1 MOL      -0.0686
     33 CE2        32.3042   34.8340  -12.9215 C.ar        1 MOL      -0.0686
     34 CZ         30.9836   34.3703  -12.7819 C.ar        1 MOL      -0.0687
     35 OXT        33.3202   37.2360   -7.8985 O.co2       1 MOL      -0.5664
     36 H1         35.4734   39.4916   -4.6315 H           1 MOL       0.2014
     37 H2         36.3617   39.6211   -6.0330 H           1 MOL       0.2014
     38 H3         34.7184   39.3450   -6.1031 H           1 MOL       0.2014
     39 H4         34.2977   41.4572   -5.0500 H           1 MOL       0.1089
     40 H5         35.9924   43.0548   -4.5953 H           1 MOL       0.0499
     41 H6         37.2009   42.1944   -5.5308 H           1 MOL       0.0499
     42 H7         35.0166   41.7081   -2.4956 H           1 MOL       0.0557
     43 H8         38.7603   40.8966   -4.2803 H           1 MOL       0.0557
     44 H9         35.7602   40.6250   -0.4723 H           1 MOL       0.0599
     45 H10        39.4872   39.8303   -2.2470 H           1 MOL       0.0599
     46 H11        37.9943   39.6843   -0.3376 H           1 MOL       0.0559
     47 H12        33.0083   42.9384   -6.9918 H           1 MOL       0.0496
     48 H13        32.7967   41.2033   -6.9406 H           1 MOL       0.0496
     49 H14        31.6952   42.1465   -8.8324 H           1 MOL       0.0576
     50 H15        34.1444   43.0600  -10.3467 H           1 MOL       0.0454
     51 H16        33.4276   44.0874   -9.1262 H           1 MOL       0.0454
     52 H17        33.0860   45.7395  -10.9019 H           1 MOL       0.0557
     53 H18        31.0800   42.0326  -11.1535 H           1 MOL       0.0557
     54 H19        31.4393   46.7243  -12.3512 H           1 MOL       0.0599
     55 H20        29.4460   43.0337  -12.6156 H           1 MOL       0.0599
     56 H21        29.5919   45.3882  -13.1881 H           1 MOL       0.0559
     57 H22        31.4880   39.9371   -8.6405 H           1 MOL       0.1876
     58 H23        31.3060   37.9234   -9.3147 H           1 MOL       0.0749
     59 H24        32.9850   38.6205  -11.7712 H           1 MOL       0.0467
     60 H25        31.2785   38.9803  -11.6282 H           1 MOL       0.0467
     61 H26        29.6612   37.0149  -11.1971 H           1 MOL       0.0557
     62 H27        33.6227   36.4254  -12.5448 H           1 MOL       0.0557
     63 H28        29.0600   34.8362  -12.0453 H           1 MOL       0.0599
     64 H29        33.0053   34.2505  -13.3836 H           1 MOL       0.0599
     65 H30        30.7247   33.4490  -13.1446 H           1 MOL       0.0559
@<TRIPOS>BOND
     1    24    25   1
     2    25    28   1
     3    25    26   1
     4    26    27  ar
     5    26    35  ar
     6    28    29   1
     7    29    30  ar
     8    29    31  ar
     9    31    33  ar
    10    33    34  ar
    11    32    34  ar
    12    30    32  ar
    13     2     1   1
    14     3     2   1
    15     2     6   1
    16     3     4  ar
    17     3     5  ar
    18    13     3   1
    19     6     7   1
    20     7     8  ar
    21     7     9  ar
    22     8    10  ar
    23     9    11  ar
    24    10    12  ar
    25    11    12  ar
    26    14    13   1
    27    14    15   1
    28    22    14   1
    29    15    16   1
    30    16    17  ar
    31    16    18  ar
    32    17    19  ar
    33    18    20  ar
    34    19    21  ar
    35    20    21  ar
    36    22    23   2
    37    22    24  am
    38     1    36   1
    39     1    37   1
    40     1    38   1
    41     2    39   1
    42     6    40   1
    43     6    41   1
    44     8    42   1
    45     9    43   1
    46    10    44   1
    47    11    45   1
    48    12    46   1
    49    13    47   1
    50    13    48   1
    51    14    49   1
    52    15    50   1
    53    15    51   1
    54    17    52   1
    55    18    53   1
    56    19    54   1
    57    20    55   1
    58    21    56   1
    59    24    57   1
    60    25    58   1
    61    28    59   1
    62    28    60   1
    63    30    61   1
    64    31    62   1
    65    32    63   1
    66    33    64   1
    67    34    65   1
@<TRIPOS>SUBSTRUCTURE
     1  MOL      2

