@<TRIPOS>MOLECULE
1os0_ligand_077
    65    67
SMALL
GAST_HUCK
****
This file was generated by PARSER (from files_GN.cpp)

@<TRIPOS>ATOM
      1 N          45.8466   37.1053   -2.5551 N.4         1 MOL       0.2351
      2 CA         45.7203   38.4904   -3.0394 C.3         1 MOL       0.0466
      3 P          44.2008   39.1155   -2.6619 P.3         1 MOL       0.0403
      4 O1P        44.3112   39.7619   -1.3766 O.co2       1 MOL      -0.6153
      5 O2P        43.8469   40.2294   -3.5027 O.co2       1 MOL      -0.6153
      6 CB         46.1719   38.5873   -4.5314 C.3         1 MOL       0.0407
      7 CG         45.4101   37.7752   -5.5226 C.ar        1 MOL      -0.0360
      8 CD1        45.9506   36.5809   -6.0616 C.ar        1 MOL      -0.0601
      9 CD2        44.1593   38.2222   -6.0076 C.ar        1 MOL      -0.0601
     10 CE1        45.2507   35.8471   -7.0406 C.ar        1 MOL      -0.0686
     11 CE2        43.4548   37.4878   -6.9811 C.ar        1 MOL      -0.0686
     12 CZ         44.0001   36.2989   -7.4984 C.ar        1 MOL      -0.0687
     13 CM         42.9595   37.9989   -2.4968 C.3         1 MOL       0.0402
     14 CA         41.4721   38.5302   -2.5430 C.3         1 MOL       0.0742
     15 CB         40.9964   38.6721   -4.0326 C.3         1 MOL       0.0021
     16 CG         39.5729   38.9780   -4.3717 C.ar        1 MOL      -0.0405
     17 CD1        38.7693   39.8429   -3.5892 C.ar        1 MOL      -0.0602
     18 CD2        39.0264   38.4742   -5.5804 C.ar        1 MOL      -0.0602
     19 CE1        37.4386   40.1268   -3.9625 C.ar        1 MOL      -0.0686
     20 CE2        37.6966   38.7418   -5.9472 C.ar        1 MOL      -0.0686
     21 CZ         36.8960   39.5578   -5.1292 C.ar        1 MOL      -0.0687
     22 C          40.5159   37.7575   -1.7209 C.2         1 MOL       0.1844
     23 O          39.4724   38.3201   -1.4037 O.2         1 MOL      -0.3964
     24 N          40.7966   36.5505   -1.2219 N.am        1 MOL      -0.2692
     25 CA         40.0376   35.8215   -0.2375 C.3         1 MOL       0.1038
     26 C          40.7809   35.8480    1.0458 C.2         1 MOL       0.0621
     27 O          42.0806   35.4655    1.1299 O.co2       1 MOL      -0.5664
     28 CB         39.7762   34.3544   -0.6875 C.3         1 MOL       0.0159
     29 CG         38.7708   34.2286   -1.7796 C.ar        1 MOL      -0.0392
     30 CD1        37.4442   34.6782   -1.5785 C.ar        1 MOL      -0.0602
     31 CD2        39.0951   33.6141   -3.0136 C.ar        1 MOL      -0.0602
     32 CE1        36.4705   34.5313   -2.5846 C.ar        1 MOL      -0.0686
     33 CE2        38.1228   33.4624   -4.0187 C.ar        1 MOL      -0.0686
     34 CZ         36.8100   33.9235   -3.8058 C.ar        1 MOL      -0.0687
     35 OXT        40.1374   36.1671    2.1893 O.co2       1 MOL      -0.5664
     36 H1         46.8115   36.7808   -2.6728 H           1 MOL       0.2014
     37 H2         45.2239   36.4939   -3.0906 H           1 MOL       0.2014
     38 H3         45.5989   37.0576   -1.5653 H           1 MOL       0.2014
     39 H4         46.4529   39.0725   -2.4705 H           1 MOL       0.1089
     40 H5         47.2217   38.2805   -4.5661 H           1 MOL       0.0499
     41 H6         46.1676   39.6357   -4.8511 H           1 MOL       0.0499
     42 H7         46.8656   36.2408   -5.7544 H           1 MOL       0.0557
     43 H8         43.7645   39.0975   -5.6633 H           1 MOL       0.0557
     44 H9         45.6554   34.9885   -7.4249 H           1 MOL       0.0599
     45 H10        42.5523   37.8233   -7.3255 H           1 MOL       0.0599
     46 H11        43.4939   35.7691   -8.2116 H           1 MOL       0.0559
     47 H12        43.1523   37.5010   -1.5418 H           1 MOL       0.0496
     48 H13        43.0970   37.2373   -3.2657 H           1 MOL       0.0496
     49 H14        41.4910   39.5411   -2.1136 H           1 MOL       0.0576
     50 H15        41.2650   37.7397   -4.5406 H           1 MOL       0.0454
     51 H16        41.5785   39.4695   -4.5048 H           1 MOL       0.0454
     52 H17        39.1443   40.2703   -2.7382 H           1 MOL       0.0557
     53 H18        39.5976   37.9023   -6.2081 H           1 MOL       0.0557
     54 H19        36.8665   40.7433   -3.3836 H           1 MOL       0.0599
     55 H20        37.3154   38.3519   -6.8103 H           1 MOL       0.0599
     56 H21        35.9272   39.7486   -5.3881 H           1 MOL       0.0559
     57 H22        41.6532   36.1549   -1.4719 H           1 MOL       0.1876
     58 H23        39.0599   36.2887   -0.0571 H           1 MOL       0.0749
     59 H24        39.3973   33.7759    0.1637 H           1 MOL       0.0467
     60 H25        40.7265   33.8969   -0.9798 H           1 MOL       0.0467
     61 H26        37.1717   35.1018   -0.6885 H           1 MOL       0.0557
     62 H27        40.0399   33.2622   -3.1848 H           1 MOL       0.0557
     63 H28        35.5146   34.8591   -2.4251 H           1 MOL       0.0599
     64 H29        38.3664   33.0106   -4.9044 H           1 MOL       0.0599
     65 H30        36.1017   33.8111   -4.5367 H           1 MOL       0.0559
@<TRIPOS>BOND
     1    24    25   1
     2    25    28   1
     3    25    26   1
     4    26    27  ar
     5    26    35  ar
     6    28    29   1
     7    29    30  ar
     8    29    31  ar
     9    31    33  ar
    10    33    34  ar
    11    32    34  ar
    12    30    32  ar
    13     2     1   1
    14     3     2   1
    15     2     6   1
    16     3     4  ar
    17     3     5  ar
    18    13     3   1
    19     6     7   1
    20     7     8  ar
    21     7     9  ar
    22     8    10  ar
    23     9    11  ar
    24    10    12  ar
    25    11    12  ar
    26    14    13   1
    27    14    15   1
    28    22    14   1
    29    15    16   1
    30    16    17  ar
    31    16    18  ar
    32    17    19  ar
    33    18    20  ar
    34    19    21  ar
    35    20    21  ar
    36    22    23   2
    37    22    24  am
    38     1    36   1
    39     1    37   1
    40     1    38   1
    41     2    39   1
    42     6    40   1
    43     6    41   1
    44     8    42   1
    45     9    43   1
    46    10    44   1
    47    11    45   1
    48    12    46   1
    49    13    47   1
    50    13    48   1
    51    14    49   1
    52    15    50   1
    53    15    51   1
    54    17    52   1
    55    18    53   1
    56    19    54   1
    57    20    55   1
    58    21    56   1
    59    24    57   1
    60    25    58   1
    61    28    59   1
    62    28    60   1
    63    30    61   1
    64    31    62   1
    65    32    63   1
    66    33    64   1
    67    34    65   1
@<TRIPOS>SUBSTRUCTURE
     1  MOL      2

