@<TRIPOS>MOLECULE
1os0_ligand_018
    65    67
SMALL
GAST_HUCK
****
This file was generated by PARSER (from files_GN.cpp)

@<TRIPOS>ATOM
      1 N          37.8903   42.0929   -4.7835 N.4         1 MOL       0.2351
      2 CA         36.8895   41.2647   -5.4823 C.3         1 MOL       0.0466
      3 P          35.4155   42.0612   -5.4550 P.3         1 MOL       0.0403
      4 O1P        34.9771   42.1647   -4.0865 O.co2       1 MOL      -0.6153
      5 O2P        35.6381   43.4001   -5.9351 O.co2       1 MOL      -0.6153
      6 CB         36.8775   39.8177   -4.8918 C.3         1 MOL       0.0407
      7 CG         37.9219   38.9346   -5.4936 C.ar        1 MOL      -0.0360
      8 CD1        39.2749   39.0120   -5.0818 C.ar        1 MOL      -0.0601
      9 CD2        37.5815   38.0116   -6.5105 C.ar        1 MOL      -0.0601
     10 CE1        40.2587   38.2071   -5.6862 C.ar        1 MOL      -0.0686
     11 CE2        38.5613   37.2037   -7.1137 C.ar        1 MOL      -0.0686
     12 CZ         39.9030   37.3057   -6.7044 C.ar        1 MOL      -0.0687
     13 CM         34.1920   41.3648   -6.3654 C.3         1 MOL       0.0402
     14 CA         34.4334   41.1067   -7.9002 C.3         1 MOL       0.0742
     15 CB         33.3895   40.0674   -8.4565 C.3         1 MOL       0.0021
     16 CG         33.5495   38.6925   -7.9005 C.ar        1 MOL      -0.0405
     17 CD1        32.8573   38.2870   -6.7321 C.ar        1 MOL      -0.0602
     18 CD2        34.4114   37.7519   -8.5283 C.ar        1 MOL      -0.0602
     19 CE1        33.0241   36.9938   -6.1994 C.ar        1 MOL      -0.0686
     20 CE2        34.5716   36.4529   -8.0033 C.ar        1 MOL      -0.0686
     21 CZ         33.8680   36.0694   -6.8472 C.ar        1 MOL      -0.0687
     22 C          34.4684   42.3597   -8.6671 C.2         1 MOL       0.1844
     23 O          35.2315   43.2436   -8.2649 O.2         1 MOL      -0.3964
     24 N          33.6629   42.5992   -9.6995 N.am        1 MOL      -0.2692
     25 CA         33.5499   43.8267  -10.4501 C.3         1 MOL       0.1038
     26 C          32.4293   44.6329   -9.8851 C.2         1 MOL       0.0621
     27 O          31.7576   44.2717   -8.7630 O.co2       1 MOL      -0.5664
     28 CB         33.4318   43.5113  -11.9862 C.3         1 MOL       0.0159
     29 CG         32.1407   43.8952  -12.6357 C.ar        1 MOL      -0.0392
     30 CD1        30.9105   43.4340  -12.1030 C.ar        1 MOL      -0.0602
     31 CD2        32.1114   44.8028  -13.7228 C.ar        1 MOL      -0.0602
     32 CE1        29.6860   43.8975  -12.6248 C.ar        1 MOL      -0.0686
     33 CE2        30.8899   45.2614  -14.2466 C.ar        1 MOL      -0.0686
     34 CZ         29.6769   44.8145  -13.6897 C.ar        1 MOL      -0.0687
     35 OXT        32.0200   45.7565  -10.5192 O.co2       1 MOL      -0.5664
     36 H1         38.8216   41.7109   -4.9376 H           1 MOL       0.2014
     37 H2         37.6947   42.1104   -3.7782 H           1 MOL       0.2014
     38 H3         37.8678   43.0504   -5.1430 H           1 MOL       0.2014
     39 H4         37.1980   41.2143   -6.5274 H           1 MOL       0.1089
     40 H5         35.8983   39.3599   -5.0485 H           1 MOL       0.0499
     41 H6         37.0202   39.8552   -3.8077 H           1 MOL       0.0499
     42 H7         39.5504   39.6550   -4.3398 H           1 MOL       0.0557
     43 H8         36.6153   37.9310   -6.8341 H           1 MOL       0.0557
     44 H9         41.2321   38.2785   -5.3827 H           1 MOL       0.0599
     45 H10        38.3056   36.5464   -7.8509 H           1 MOL       0.0599
     46 H11        40.6200   36.7199   -7.1436 H           1 MOL       0.0559
     47 H12        33.2914   41.9732   -6.2417 H           1 MOL       0.0496
     48 H13        33.9877   40.4093   -5.8759 H           1 MOL       0.0496
     49 H14        35.4176   40.6341   -8.0380 H           1 MOL       0.0576
     50 H15        33.4813   39.9858   -9.5423 H           1 MOL       0.0454
     51 H16        32.3733   40.4291   -8.2471 H           1 MOL       0.0454
     52 H17        32.2267   38.9294   -6.2511 H           1 MOL       0.0557
     53 H18        34.9268   38.0100   -9.3663 H           1 MOL       0.0557
     54 H19        32.5440   36.7312   -5.3345 H           1 MOL       0.0599
     55 H20        35.1968   35.7823   -8.4672 H           1 MOL       0.0599
     56 H21        33.9908   35.1299   -6.4570 H           1 MOL       0.0559
     57 H22        33.0437   41.8944   -9.9508 H           1 MOL       0.1876
     58 H23        34.4422   44.4499  -10.3130 H           1 MOL       0.0749
     59 H24        33.5953   42.4450  -12.1699 H           1 MOL       0.0467
     60 H25        34.2590   44.0172  -12.4964 H           1 MOL       0.0467
     61 H26        30.9063   42.7955  -11.3083 H           1 MOL       0.0557
     62 H27        32.9822   45.1702  -14.1211 H           1 MOL       0.0557
     63 H28        28.8075   43.5782  -12.2121 H           1 MOL       0.0599
     64 H29        30.8815   45.9377  -15.0103 H           1 MOL       0.0599
     65 H30        28.7888   45.1537  -14.0617 H           1 MOL       0.0559
@<TRIPOS>BOND
     1    24    25   1
     2    25    28   1
     3    25    26   1
     4    26    27  ar
     5    26    35  ar
     6    28    29   1
     7    29    30  ar
     8    29    31  ar
     9    31    33  ar
    10    33    34  ar
    11    32    34  ar
    12    30    32  ar
    13     2     1   1
    14     3     2   1
    15     2     6   1
    16     3     4  ar
    17     3     5  ar
    18    13     3   1
    19     6     7   1
    20     7     8  ar
    21     7     9  ar
    22     8    10  ar
    23     9    11  ar
    24    10    12  ar
    25    11    12  ar
    26    14    13   1
    27    14    15   1
    28    22    14   1
    29    15    16   1
    30    16    17  ar
    31    16    18  ar
    32    17    19  ar
    33    18    20  ar
    34    19    21  ar
    35    20    21  ar
    36    22    23   2
    37    22    24  am
    38     1    36   1
    39     1    37   1
    40     1    38   1
    41     2    39   1
    42     6    40   1
    43     6    41   1
    44     8    42   1
    45     9    43   1
    46    10    44   1
    47    11    45   1
    48    12    46   1
    49    13    47   1
    50    13    48   1
    51    14    49   1
    52    15    50   1
    53    15    51   1
    54    17    52   1
    55    18    53   1
    56    19    54   1
    57    20    55   1
    58    21    56   1
    59    24    57   1
    60    25    58   1
    61    28    59   1
    62    28    60   1
    63    30    61   1
    64    31    62   1
    65    32    63   1
    66    33    64   1
    67    34    65   1
@<TRIPOS>SUBSTRUCTURE
     1  MOL      2

