@<TRIPOS>MOLECULE
1os0_ligand_036
    65    67
SMALL
GAST_HUCK
****
This file was generated by PARSER (from files_GN.cpp)

@<TRIPOS>ATOM
      1 N          34.9967   40.1576   -5.0985 N.4         1 MOL       0.2351
      2 CA         35.2809   41.6016   -5.1809 C.3         1 MOL       0.0466
      3 P          34.5480   42.2569   -6.5387 P.3         1 MOL       0.0403
      4 O1P        33.1404   42.4021   -6.2616 O.co2       1 MOL      -0.6153
      5 O2P        35.0934   43.5787   -6.7367 O.co2       1 MOL      -0.6153
      6 CB         36.8134   41.8763   -5.0946 C.3         1 MOL       0.0407
      7 CG         37.5156   41.0254   -4.0889 C.ar        1 MOL      -0.0360
      8 CD1        38.2871   39.9107   -4.4950 C.ar        1 MOL      -0.0601
      9 CD2        37.3851   41.2914   -2.7057 C.ar        1 MOL      -0.0601
     10 CE1        38.8931   39.0703   -3.5406 C.ar        1 MOL      -0.0686
     11 CE2        37.9932   40.4504   -1.7521 C.ar        1 MOL      -0.0686
     12 CZ         38.7441   39.3405   -2.1720 C.ar        1 MOL      -0.0687
     13 CM         34.7283   41.3393   -7.9342 C.3         1 MOL       0.0402
     14 CA         33.7739   41.6634   -9.1479 C.3         1 MOL       0.0742
     15 CB         34.2778   42.8853  -10.0064 C.3         1 MOL       0.0021
     16 CG         33.3336   43.9221  -10.5232 C.ar        1 MOL      -0.0405
     17 CD1        33.8812   45.0002  -11.2745 C.ar        1 MOL      -0.0602
     18 CD2        31.9393   43.9387  -10.2647 C.ar        1 MOL      -0.0602
     19 CE1        33.0711   46.0601  -11.7261 C.ar        1 MOL      -0.0686
     20 CE2        31.1320   44.9954  -10.7238 C.ar        1 MOL      -0.0686
     21 CZ         31.6956   46.0604  -11.4467 C.ar        1 MOL      -0.0687
     22 C          33.5271   40.5126  -10.0254 C.2         1 MOL       0.1844
     23 O          32.4038   40.3566  -10.4993 O.2         1 MOL      -0.3964
     24 N          34.5306   39.7243  -10.4013 N.am        1 MOL      -0.2692
     25 CA         34.5806   38.6228  -11.3259 C.3         1 MOL       0.1038
     26 C          33.3902   37.7341  -11.2969 C.2         1 MOL       0.0621
     27 O          33.4767   36.4077  -11.0203 O.co2       1 MOL      -0.5664
     28 CB         35.9369   37.8723  -11.0857 C.3         1 MOL       0.0159
     29 CG         36.3320   37.5065   -9.6849 C.ar        1 MOL      -0.0392
     30 CD1        37.7024   37.5370   -9.3314 C.ar        1 MOL      -0.0602
     31 CD2        35.3968   37.1302   -8.6828 C.ar        1 MOL      -0.0602
     32 CE1        38.1267   37.2018   -8.0314 C.ar        1 MOL      -0.0686
     33 CE2        35.8145   36.8009   -7.3832 C.ar        1 MOL      -0.0686
     34 CZ         37.1820   36.8297   -7.0557 C.ar        1 MOL      -0.0687
     35 OXT        32.2428   38.1329  -11.8972 O.co2       1 MOL      -0.5664
     36 H1         35.3506   39.7892   -4.2169 H           1 MOL       0.2014
     37 H2         35.4475   39.6585   -5.8694 H           1 MOL       0.2014
     38 H3         33.9879   40.0043   -5.1289 H           1 MOL       0.2014
     39 H4         34.8087   42.0636   -4.3115 H           1 MOL       0.1089
     40 H5         36.9843   42.9249   -4.8338 H           1 MOL       0.0499
     41 H6         37.2528   41.7223   -6.0833 H           1 MOL       0.0499
     42 H7         38.3952   39.6860   -5.4861 H           1 MOL       0.0557
     43 H8         36.8337   42.0895   -2.3808 H           1 MOL       0.0557
     44 H9         39.4354   38.2594   -3.8479 H           1 MOL       0.0599
     45 H10        37.8824   40.6458   -0.7546 H           1 MOL       0.0599
     46 H11        39.1808   38.7256   -1.4789 H           1 MOL       0.0559
     47 H12        34.5524   40.2998   -7.6390 H           1 MOL       0.0496
     48 H13        35.7705   41.4176   -8.2615 H           1 MOL       0.0496
     49 H14        32.8109   41.9149   -8.6911 H           1 MOL       0.0576
     50 H15        34.8075   42.4763  -10.8781 H           1 MOL       0.0454
     51 H16        35.0318   43.4314   -9.4436 H           1 MOL       0.0454
     52 H17        34.8877   45.0263  -11.4869 H           1 MOL       0.0557
     53 H18        31.4839   43.1982   -9.7364 H           1 MOL       0.0557
     54 H19        33.4881   46.8364  -12.2405 H           1 MOL       0.0599
     55 H20        30.1316   44.9889  -10.5148 H           1 MOL       0.0599
     56 H21        31.1076   46.8380  -11.7617 H           1 MOL       0.0559
     57 H22        35.3833   39.9568  -10.0029 H           1 MOL       0.1876
     58 H23        34.6188   39.0560  -12.3291 H           1 MOL       0.0749
     59 H24        36.7149   38.5176  -11.4992 H           1 MOL       0.0467
     60 H25        35.9578   36.9572  -11.6876 H           1 MOL       0.0467
     61 H26        38.4075   37.8113  -10.0166 H           1 MOL       0.0557
     62 H27        34.3970   37.1009   -8.8834 H           1 MOL       0.0557
     63 H28        39.1181   37.2295   -7.7927 H           1 MOL       0.0599
     64 H29        35.1270   36.5395   -6.6780 H           1 MOL       0.0599
     65 H30        37.4874   36.5787   -6.1149 H           1 MOL       0.0559
@<TRIPOS>BOND
     1    24    25   1
     2    25    28   1
     3    25    26   1
     4    26    27  ar
     5    26    35  ar
     6    28    29   1
     7    29    30  ar
     8    29    31  ar
     9    31    33  ar
    10    33    34  ar
    11    32    34  ar
    12    30    32  ar
    13     2     1   1
    14     3     2   1
    15     2     6   1
    16     3     4  ar
    17     3     5  ar
    18    13     3   1
    19     6     7   1
    20     7     8  ar
    21     7     9  ar
    22     8    10  ar
    23     9    11  ar
    24    10    12  ar
    25    11    12  ar
    26    14    13   1
    27    14    15   1
    28    22    14   1
    29    15    16   1
    30    16    17  ar
    31    16    18  ar
    32    17    19  ar
    33    18    20  ar
    34    19    21  ar
    35    20    21  ar
    36    22    23   2
    37    22    24  am
    38     1    36   1
    39     1    37   1
    40     1    38   1
    41     2    39   1
    42     6    40   1
    43     6    41   1
    44     8    42   1
    45     9    43   1
    46    10    44   1
    47    11    45   1
    48    12    46   1
    49    13    47   1
    50    13    48   1
    51    14    49   1
    52    15    50   1
    53    15    51   1
    54    17    52   1
    55    18    53   1
    56    19    54   1
    57    20    55   1
    58    21    56   1
    59    24    57   1
    60    25    58   1
    61    28    59   1
    62    28    60   1
    63    30    61   1
    64    31    62   1
    65    32    63   1
    66    33    64   1
    67    34    65   1
@<TRIPOS>SUBSTRUCTURE
     1  MOL      2

