@<TRIPOS>MOLECULE
1os0_ligand_009
    65    67
SMALL
GAST_HUCK
****
This file was generated by PARSER (from files_GN.cpp)

@<TRIPOS>ATOM
      1 N          37.0232   39.1580   -2.5323 N.4         1 MOL       0.2351
      2 CA         36.8890   40.6148   -2.7212 C.3         1 MOL       0.0466
      3 P          37.6474   41.0789   -4.1520 P.3         1 MOL       0.0403
      4 O1P        38.8353   41.8340   -3.8364 O.co2       1 MOL      -0.6153
      5 O2P        38.1953   39.9493   -4.8670 O.co2       1 MOL      -0.6153
      6 CB         37.3599   41.3207   -1.4153 C.3         1 MOL       0.0407
      7 CG         37.1443   42.7946   -1.3475 C.ar        1 MOL      -0.0360
      8 CD1        35.8470   43.3467   -1.4914 C.ar        1 MOL      -0.0601
      9 CD2        38.2273   43.6725   -1.0940 C.ar        1 MOL      -0.0601
     10 CE1        35.6414   44.7358   -1.3995 C.ar        1 MOL      -0.0686
     11 CE2        38.0213   45.0604   -1.0002 C.ar        1 MOL      -0.0686
     12 CZ         36.7279   45.5918   -1.1473 C.ar        1 MOL      -0.0687
     13 CM         36.7108   41.9770   -5.2001 C.3         1 MOL       0.0402
     14 CA         35.8918   41.2162   -6.3137 C.3         1 MOL       0.0742
     15 CB         34.7861   40.2519   -5.7505 C.3         1 MOL       0.0021
     16 CG         34.6142   38.9054   -6.3808 C.ar        1 MOL      -0.0405
     17 CD1        33.3918   38.2018   -6.2248 C.ar        1 MOL      -0.0602
     18 CD2        35.7100   38.2005   -6.9323 C.ar        1 MOL      -0.0602
     19 CE1        33.2826   36.8407   -6.5676 C.ar        1 MOL      -0.0686
     20 CE2        35.6043   36.8399   -7.2806 C.ar        1 MOL      -0.0686
     21 CZ         34.3944   36.1538   -7.0911 C.ar        1 MOL      -0.0687
     22 C          35.3277   42.1282   -7.3352 C.2         1 MOL       0.1844
     23 O          35.5384   43.3396   -7.2816 O.2         1 MOL      -0.3964
     24 N          34.5772   41.6505   -8.3260 N.am        1 MOL      -0.2692
     25 CA         34.0637   42.4104   -9.4382 C.3         1 MOL       0.1038
     26 C          32.8649   43.1891   -9.0524 C.2         1 MOL       0.0621
     27 O          32.6619   44.4389   -9.5194 O.co2       1 MOL      -0.5664
     28 CB         33.7481   41.4781  -10.6450 C.3         1 MOL       0.0159
     29 CG         33.5625   42.0854  -12.0056 C.ar        1 MOL      -0.0392
     30 CD1        33.9016   43.4222  -12.3495 C.ar        1 MOL      -0.0602
     31 CD2        33.0856   41.2436  -13.0423 C.ar        1 MOL      -0.0602
     32 CE1        33.7915   43.8834  -13.6741 C.ar        1 MOL      -0.0686
     33 CE2        32.9673   41.7039  -14.3649 C.ar        1 MOL      -0.0686
     34 CZ         33.3290   43.0229  -14.6827 C.ar        1 MOL      -0.0687
     35 OXT        32.0069   42.7127   -8.1167 O.co2       1 MOL      -0.5664
     36 H1         36.5012   38.8653   -1.6971 H           1 MOL       0.2014
     37 H2         38.0100   38.9113   -2.4107 H           1 MOL       0.2014
     38 H3         36.6479   38.6654   -3.3418 H           1 MOL       0.2014
     39 H4         35.8181   40.8087   -2.8192 H           1 MOL       0.1089
     40 H5         38.4148   41.0738   -1.2511 H           1 MOL       0.0499
     41 H6         36.8127   40.8835   -0.5733 H           1 MOL       0.0499
     42 H7         35.0396   42.7435   -1.6560 H           1 MOL       0.0557
     43 H8         39.1733   43.3071   -0.9683 H           1 MOL       0.0557
     44 H9         34.7012   45.1233   -1.5077 H           1 MOL       0.0599
     45 H10        38.8100   45.6823   -0.8146 H           1 MOL       0.0599
     46 H11        36.5777   46.5983   -1.0658 H           1 MOL       0.0559
     47 H12        37.3949   42.6568   -5.7165 H           1 MOL       0.0496
     48 H13        36.0276   42.5969   -4.6070 H           1 MOL       0.0496
     49 H14        36.6355   40.5993   -6.8311 H           1 MOL       0.0576
     50 H15        33.8250   40.7924   -5.7469 H           1 MOL       0.0454
     51 H16        34.9774   40.0283   -4.7054 H           1 MOL       0.0454
     52 H17        32.5815   38.6644   -5.8042 H           1 MOL       0.0557
     53 H18        36.5992   38.6810   -7.0799 H           1 MOL       0.0557
     54 H19        32.4056   36.3369   -6.4044 H           1 MOL       0.0599
     55 H20        36.4172   36.3385   -7.6508 H           1 MOL       0.0599
     56 H21        34.3277   35.1607   -7.3205 H           1 MOL       0.0559
     57 H22        34.4253   40.6871   -8.3411 H           1 MOL       0.1876
     58 H23        34.8661   43.0929   -9.7279 H           1 MOL       0.0749
     59 H24        32.8523   40.8984  -10.3957 H           1 MOL       0.0467
     60 H25        34.5572   40.7486  -10.7445 H           1 MOL       0.0467
     61 H26        34.2566   44.0768  -11.6567 H           1 MOL       0.0557
     62 H27        32.8215   40.2763  -12.8378 H           1 MOL       0.0557
     63 H28        34.0646   44.8402  -13.9100 H           1 MOL       0.0599
     64 H29        32.6264   41.0735  -15.0959 H           1 MOL       0.0599
     65 H30        33.2616   43.3535  -15.6476 H           1 MOL       0.0559
@<TRIPOS>BOND
     1    24    25   1
     2    25    28   1
     3    25    26   1
     4    26    27  ar
     5    26    35  ar
     6    28    29   1
     7    29    30  ar
     8    29    31  ar
     9    31    33  ar
    10    33    34  ar
    11    32    34  ar
    12    30    32  ar
    13     2     1   1
    14     3     2   1
    15     2     6   1
    16     3     4  ar
    17     3     5  ar
    18    13     3   1
    19     6     7   1
    20     7     8  ar
    21     7     9  ar
    22     8    10  ar
    23     9    11  ar
    24    10    12  ar
    25    11    12  ar
    26    14    13   1
    27    14    15   1
    28    22    14   1
    29    15    16   1
    30    16    17  ar
    31    16    18  ar
    32    17    19  ar
    33    18    20  ar
    34    19    21  ar
    35    20    21  ar
    36    22    23   2
    37    22    24  am
    38     1    36   1
    39     1    37   1
    40     1    38   1
    41     2    39   1
    42     6    40   1
    43     6    41   1
    44     8    42   1
    45     9    43   1
    46    10    44   1
    47    11    45   1
    48    12    46   1
    49    13    47   1
    50    13    48   1
    51    14    49   1
    52    15    50   1
    53    15    51   1
    54    17    52   1
    55    18    53   1
    56    19    54   1
    57    20    55   1
    58    21    56   1
    59    24    57   1
    60    25    58   1
    61    28    59   1
    62    28    60   1
    63    30    61   1
    64    31    62   1
    65    32    63   1
    66    33    64   1
    67    34    65   1
@<TRIPOS>SUBSTRUCTURE
     1  MOL      2

