@<TRIPOS>MOLECULE
1os0_ligand_030
    65    67
SMALL
GAST_HUCK
****
This file was generated by PARSER (from files_GN.cpp)

@<TRIPOS>ATOM
      1 N          46.7614   39.5669   -1.9087 N.4         1 MOL       0.2351
      2 CA         45.8691   38.4108   -2.1161 C.3         1 MOL       0.0466
      3 P          44.5420   38.8193   -3.0731 P.3         1 MOL       0.0403
      4 O1P        44.1726   40.2075   -2.9163 O.co2       1 MOL      -0.6153
      5 O2P        44.9382   38.6964   -4.4578 O.co2       1 MOL      -0.6153
      6 CB         45.4907   37.7728   -0.7408 C.3         1 MOL       0.0407
      7 CG         46.5667   37.6674    0.2896 C.ar        1 MOL      -0.0360
      8 CD1        47.8219   37.0891   -0.0158 C.ar        1 MOL      -0.0601
      9 CD2        46.3300   38.0993    1.6190 C.ar        1 MOL      -0.0601
     10 CE1        48.8098   36.9453    0.9787 C.ar        1 MOL      -0.0686
     11 CE2        47.3093   37.9404    2.6164 C.ar        1 MOL      -0.0686
     12 CZ         48.5511   37.3642    2.2948 C.ar        1 MOL      -0.0687
     13 CM         43.1795   37.8841   -2.8283 C.3         1 MOL       0.0402
     14 CA         41.8238   38.3649   -3.4661 C.3         1 MOL       0.0742
     15 CB         41.6769   37.9824   -4.9804 C.3         1 MOL       0.0021
     16 CG         40.3129   38.0077   -5.5977 C.ar        1 MOL      -0.0405
     17 CD1        39.2671   38.8262   -5.1019 C.ar        1 MOL      -0.0602
     18 CD2        40.0291   37.1770   -6.7135 C.ar        1 MOL      -0.0602
     19 CE1        37.9656   38.7373   -5.6273 C.ar        1 MOL      -0.0686
     20 CE2        38.7363   37.1171   -7.2664 C.ar        1 MOL      -0.0686
     21 CZ         37.6951   37.8810   -6.7094 C.ar        1 MOL      -0.0687
     22 C          40.6972   37.8816   -2.6636 C.2         1 MOL       0.1844
     23 O          40.0558   38.6891   -1.9976 O.2         1 MOL      -0.3964
     24 N          40.3761   36.5914   -2.6445 N.am        1 MOL      -0.2692
     25 CA         39.2324   35.9796   -2.0156 C.3         1 MOL       0.1038
     26 C          37.9795   36.5279   -2.5906 C.2         1 MOL       0.0621
     27 O          37.6917   36.3012   -3.8972 O.co2       1 MOL      -0.5664
     28 CB         39.2556   36.0074   -0.4506 C.3         1 MOL       0.0159
     29 CG         40.2849   35.1042    0.1477 C.ar        1 MOL      -0.0392
     30 CD1        41.6591   35.4306    0.0637 C.ar        1 MOL      -0.0602
     31 CD2        39.9199   33.9134    0.8216 C.ar        1 MOL      -0.0602
     32 CE1        42.6416   34.5790    0.6019 C.ar        1 MOL      -0.0686
     33 CE2        40.9020   33.0611    1.3672 C.ar        1 MOL      -0.0686
     34 CZ         42.2629   33.3878    1.2441 C.ar        1 MOL      -0.0687
     35 OXT        37.2864   37.5052   -1.9659 O.co2       1 MOL      -0.5664
     36 H1         47.6533   39.2397   -1.5211 H           1 MOL       0.2014
     37 H2         46.3313   40.2175   -1.2470 H           1 MOL       0.2014
     38 H3         46.9547   40.0524   -2.7859 H           1 MOL       0.2014
     39 H4         46.4491   37.6711   -2.6725 H           1 MOL       0.1089
     40 H5         45.1318   36.7576   -0.9201 H           1 MOL       0.0499
     41 H6         44.6582   38.3393   -0.3149 H           1 MOL       0.0499
     42 H7         48.0276   36.7649   -0.9636 H           1 MOL       0.0557
     43 H8         45.4317   38.5125    1.8809 H           1 MOL       0.0557
     44 H9         49.7146   36.5294    0.7452 H           1 MOL       0.0599
     45 H10        47.1138   38.2372    3.5746 H           1 MOL       0.0599
     46 H11        49.2603   37.2423    3.0212 H           1 MOL       0.0559
     47 H12        43.0497   37.8555   -1.7500 H           1 MOL       0.0496
     48 H13        43.4026   36.8647   -3.1486 H           1 MOL       0.0496
     49 H14        41.8108   39.4600   -3.4199 H           1 MOL       0.0576
     50 H15        42.0885   36.9757   -5.1008 H           1 MOL       0.0454
     51 H16        42.3090   38.6488   -5.5682 H           1 MOL       0.0454
     52 H17        39.4421   39.4773   -4.3319 H           1 MOL       0.0557
     53 H18        40.7644   36.5981   -7.1272 H           1 MOL       0.0557
     54 H19        37.2097   39.2996   -5.2238 H           1 MOL       0.0599
     55 H20        38.5474   36.5057   -8.0650 H           1 MOL       0.0599
     56 H21        36.7518   37.8293   -7.0988 H           1 MOL       0.0559
     57 H22        40.9332   36.0016   -3.1790 H           1 MOL       0.1876
     58 H23        39.2485   34.9250   -2.3054 H           1 MOL       0.0749
     59 H24        38.2654   35.7131   -0.0872 H           1 MOL       0.0467
     60 H25        39.4232   37.0277   -0.0949 H           1 MOL       0.0467
     61 H26        41.9536   36.3011   -0.3768 H           1 MOL       0.0557
     62 H27        38.9354   33.6553    0.9235 H           1 MOL       0.0557
     63 H28        43.6295   34.8340    0.5400 H           1 MOL       0.0599
     64 H29        40.6242   32.2084    1.8575 H           1 MOL       0.0599
     65 H30        42.9767   32.7709    1.6409 H           1 MOL       0.0559
@<TRIPOS>BOND
     1    24    25   1
     2    25    28   1
     3    25    26   1
     4    26    27  ar
     5    26    35  ar
     6    28    29   1
     7    29    30  ar
     8    29    31  ar
     9    31    33  ar
    10    33    34  ar
    11    32    34  ar
    12    30    32  ar
    13     2     1   1
    14     3     2   1
    15     2     6   1
    16     3     4  ar
    17     3     5  ar
    18    13     3   1
    19     6     7   1
    20     7     8  ar
    21     7     9  ar
    22     8    10  ar
    23     9    11  ar
    24    10    12  ar
    25    11    12  ar
    26    14    13   1
    27    14    15   1
    28    22    14   1
    29    15    16   1
    30    16    17  ar
    31    16    18  ar
    32    17    19  ar
    33    18    20  ar
    34    19    21  ar
    35    20    21  ar
    36    22    23   2
    37    22    24  am
    38     1    36   1
    39     1    37   1
    40     1    38   1
    41     2    39   1
    42     6    40   1
    43     6    41   1
    44     8    42   1
    45     9    43   1
    46    10    44   1
    47    11    45   1
    48    12    46   1
    49    13    47   1
    50    13    48   1
    51    14    49   1
    52    15    50   1
    53    15    51   1
    54    17    52   1
    55    18    53   1
    56    19    54   1
    57    20    55   1
    58    21    56   1
    59    24    57   1
    60    25    58   1
    61    28    59   1
    62    28    60   1
    63    30    61   1
    64    31    62   1
    65    32    63   1
    66    33    64   1
    67    34    65   1
@<TRIPOS>SUBSTRUCTURE
     1  MOL      2

