@<TRIPOS>MOLECULE
1os0_ligand_058
    65    67
SMALL
GAST_HUCK
****
This file was generated by PARSER (from files_GN.cpp)

@<TRIPOS>ATOM
      1 N          32.9414   43.0741   -7.8623 N.4         1 MOL       0.2351
      2 CA         32.0802   42.9669   -9.0606 C.3         1 MOL       0.0466
      3 P          32.7415   41.8360  -10.0988 P.3         1 MOL       0.0403
      4 O1P        32.4428   42.1655  -11.5033 O.co2       1 MOL      -0.6153
      5 O2P        34.1934   41.9096  -10.0761 O.co2       1 MOL      -0.6153
      6 CB         31.7130   44.4140   -9.5801 C.3         1 MOL       0.0407
      7 CG         32.2265   44.8906  -10.9017 C.ar        1 MOL      -0.0360
      8 CD1        31.3298   45.2364  -11.9476 C.ar        1 MOL      -0.0601
      9 CD2        33.6097   44.9630  -11.1498 C.ar        1 MOL      -0.0601
     10 CE1        31.8201   45.5865  -13.2210 C.ar        1 MOL      -0.0686
     11 CE2        34.1041   45.3343  -12.4192 C.ar        1 MOL      -0.0686
     12 CZ         33.1988   45.6346  -13.4566 C.ar        1 MOL      -0.0687
     13 CM         32.2442   40.2527   -9.9577 C.3         1 MOL       0.0402
     14 CA         32.7624   39.3398   -8.7935 C.3         1 MOL       0.0742
     15 CB         32.3373   37.8358   -8.9957 C.3         1 MOL       0.0021
     16 CG         30.9122   37.4855   -8.7223 C.ar        1 MOL      -0.0405
     17 CD1        29.8659   37.8886   -9.5971 C.ar        1 MOL      -0.0602
     18 CD2        30.5714   36.6439   -7.6333 C.ar        1 MOL      -0.0602
     19 CE1        28.5335   37.5191   -9.3512 C.ar        1 MOL      -0.0686
     20 CE2        29.2428   36.2582   -7.3969 C.ar        1 MOL      -0.0686
     21 CZ         28.2144   36.7132   -8.2480 C.ar        1 MOL      -0.0687
     22 C          34.2182   39.3838   -8.6286 C.2         1 MOL       0.1844
     23 O          34.9307   39.0151   -9.5560 O.2         1 MOL      -0.3964
     24 N          34.7343   39.6496   -7.4325 N.am        1 MOL      -0.2692
     25 CA         36.0995   39.5054   -6.9929 C.3         1 MOL       0.1038
     26 C          36.5490   38.1090   -7.2712 C.2         1 MOL       0.0621
     27 O          36.7927   37.2236   -6.2789 O.co2       1 MOL      -0.5664
     28 CB         36.1775   39.9074   -5.4817 C.3         1 MOL       0.0159
     29 CG         37.4117   39.6958   -4.6679 C.ar        1 MOL      -0.0392
     30 CD1        38.6149   39.1266   -5.1453 C.ar        1 MOL      -0.0602
     31 CD2        37.3746   40.0810   -3.2944 C.ar        1 MOL      -0.0602
     32 CE1        39.7290   38.9385   -4.3107 C.ar        1 MOL      -0.0686
     33 CE2        38.4633   39.8499   -2.4415 C.ar        1 MOL      -0.0686
     34 CZ         39.6509   39.2879   -2.9548 C.ar        1 MOL      -0.0687
     35 OXT        37.1419   37.8574   -8.4712 O.co2       1 MOL      -0.5664
     36 H1         32.5224   43.6994   -7.1631 H           1 MOL       0.2014
     37 H2         33.8498   43.4531   -8.1369 H           1 MOL       0.2014
     38 H3         33.0741   42.1525   -7.4426 H           1 MOL       0.2014
     39 H4         31.1519   42.5100   -8.7033 H           1 MOL       0.1089
     40 H5         32.0285   45.1591   -8.8475 H           1 MOL       0.0499
     41 H6         30.6226   44.4812   -9.5895 H           1 MOL       0.0499
     42 H7         30.3223   45.1960  -11.8035 H           1 MOL       0.0557
     43 H8         34.2788   44.7015  -10.4207 H           1 MOL       0.0557
     44 H9         31.1626   45.8134  -13.9736 H           1 MOL       0.0599
     45 H10        35.1075   45.3852  -12.5841 H           1 MOL       0.0599
     46 H11        33.5526   45.8874  -14.3832 H           1 MOL       0.0559
     47 H12        32.4952   39.7563  -10.8986 H           1 MOL       0.0496
     48 H13        31.1583   40.2943   -9.8896 H           1 MOL       0.0496
     49 H14        32.2855   39.6919   -7.8737 H           1 MOL       0.0576
     50 H15        32.9622   37.2038   -8.3522 H           1 MOL       0.0454
     51 H16        32.5727   37.5298  -10.0174 H           1 MOL       0.0454
     52 H17        30.0764   38.4276  -10.4384 H           1 MOL       0.0557
     53 H18        31.3047   36.2854   -7.0102 H           1 MOL       0.0557
     54 H19        27.7914   37.8226   -9.9920 H           1 MOL       0.0599
     55 H20        29.0170   35.6411   -6.6152 H           1 MOL       0.0599
     56 H21        27.2480   36.4382   -8.0717 H           1 MOL       0.0559
     57 H22        34.0954   39.9365   -6.7598 H           1 MOL       0.1876
     58 H23        36.7188   40.2115   -7.5494 H           1 MOL       0.0749
     59 H24        35.3661   39.3850   -4.9751 H           1 MOL       0.0467
     60 H25        35.9506   40.9762   -5.4282 H           1 MOL       0.0467
     61 H26        38.7150   38.8240   -6.1124 H           1 MOL       0.0557
     62 H27        36.5292   40.5134   -2.9090 H           1 MOL       0.0557
     63 H28        40.5926   38.5393   -4.6941 H           1 MOL       0.0599
     64 H29        38.3974   40.0921   -1.4489 H           1 MOL       0.0599
     65 H30        40.4541   39.1459   -2.3372 H           1 MOL       0.0559
@<TRIPOS>BOND
     1    24    25   1
     2    25    28   1
     3    25    26   1
     4    26    27  ar
     5    26    35  ar
     6    28    29   1
     7    29    30  ar
     8    29    31  ar
     9    31    33  ar
    10    33    34  ar
    11    32    34  ar
    12    30    32  ar
    13     2     1   1
    14     3     2   1
    15     2     6   1
    16     3     4  ar
    17     3     5  ar
    18    13     3   1
    19     6     7   1
    20     7     8  ar
    21     7     9  ar
    22     8    10  ar
    23     9    11  ar
    24    10    12  ar
    25    11    12  ar
    26    14    13   1
    27    14    15   1
    28    22    14   1
    29    15    16   1
    30    16    17  ar
    31    16    18  ar
    32    17    19  ar
    33    18    20  ar
    34    19    21  ar
    35    20    21  ar
    36    22    23   2
    37    22    24  am
    38     1    36   1
    39     1    37   1
    40     1    38   1
    41     2    39   1
    42     6    40   1
    43     6    41   1
    44     8    42   1
    45     9    43   1
    46    10    44   1
    47    11    45   1
    48    12    46   1
    49    13    47   1
    50    13    48   1
    51    14    49   1
    52    15    50   1
    53    15    51   1
    54    17    52   1
    55    18    53   1
    56    19    54   1
    57    20    55   1
    58    21    56   1
    59    24    57   1
    60    25    58   1
    61    28    59   1
    62    28    60   1
    63    30    61   1
    64    31    62   1
    65    32    63   1
    66    33    64   1
    67    34    65   1
@<TRIPOS>SUBSTRUCTURE
     1  MOL      2

