@<TRIPOS>MOLECULE
1os0_ligand_013
    65    67
SMALL
GAST_HUCK
****
This file was generated by PARSER (from files_GN.cpp)

@<TRIPOS>ATOM
      1 N          35.3060   42.0197   -0.4446 N.4         1 MOL       0.2351
      2 CA         35.8941   43.0534   -1.3178 C.3         1 MOL       0.0466
      3 P          36.5526   42.3612   -2.6996 P.3         1 MOL       0.0403
      4 O1P        37.7322   43.0662   -3.1348 O.co2       1 MOL      -0.6153
      5 O2P        36.9915   41.0085   -2.4341 O.co2       1 MOL      -0.6153
      6 CB         36.8056   44.0402   -0.5172 C.3         1 MOL       0.0407
      7 CG         37.8378   43.4707    0.3981 C.ar        1 MOL      -0.0360
      8 CD1        39.2185   43.6767    0.1523 C.ar        1 MOL      -0.0601
      9 CD2        37.4617   42.8474    1.6133 C.ar        1 MOL      -0.0601
     10 CE1        40.1874   43.2831    1.0940 C.ar        1 MOL      -0.0686
     11 CE2        38.4298   42.4400    2.5524 C.ar        1 MOL      -0.0686
     12 CZ         39.7936   42.6607    2.2919 C.ar        1 MOL      -0.0687
     13 CM         35.4463   42.3965   -3.9646 C.3         1 MOL       0.0402
     14 CA         35.7500   41.5702   -5.2645 C.3         1 MOL       0.0742
     15 CB         35.4461   40.0404   -5.0780 C.3         1 MOL       0.0021
     16 CG         35.4931   39.1961   -6.3043 C.ar        1 MOL      -0.0405
     17 CD1        36.7306   38.7489   -6.8193 C.ar        1 MOL      -0.0602
     18 CD2        34.3010   38.8103   -6.9638 C.ar        1 MOL      -0.0602
     19 CE1        36.7789   37.9553   -7.9789 C.ar        1 MOL      -0.0686
     20 CE2        34.3501   38.0201   -8.1289 C.ar        1 MOL      -0.0686
     21 CZ         35.5891   37.5974   -8.6387 C.ar        1 MOL      -0.0687
     22 C          35.0350   42.1411   -6.4176 C.2         1 MOL       0.1844
     23 O          35.6147   43.0007   -7.0753 O.2         1 MOL      -0.3964
     24 N          33.7749   41.8073   -6.7136 N.am        1 MOL      -0.2692
     25 CA         33.0573   42.0547   -7.9465 C.3         1 MOL       0.1038
     26 C          33.2746   40.9134   -8.8695 C.2         1 MOL       0.0621
     27 O          32.3203   39.9666   -9.0222 O.co2       1 MOL      -0.5664
     28 CB         33.3107   43.4636   -8.5862 C.3         1 MOL       0.0159
     29 CG         32.8420   43.6559   -9.9937 C.ar        1 MOL      -0.0392
     30 CD1        33.6721   43.2875  -11.0801 C.ar        1 MOL      -0.0602
     31 CD2        31.5722   44.2149  -10.2798 C.ar        1 MOL      -0.0602
     32 CE1        33.2391   43.4390  -12.4089 C.ar        1 MOL      -0.0686
     33 CE2        31.1369   44.3668  -11.6109 C.ar        1 MOL      -0.0686
     34 CZ         31.9673   43.9785  -12.6768 C.ar        1 MOL      -0.0687
     35 OXT        34.4134   40.7896   -9.5856 O.co2       1 MOL      -0.5664
     36 H1         34.8606   42.4636    0.3592 H           1 MOL       0.2014
     37 H2         36.0336   41.3841   -0.1135 H           1 MOL       0.2014
     38 H3         34.5999   41.4847   -0.9557 H           1 MOL       0.2014
     39 H4         35.0471   43.6597   -1.6514 H           1 MOL       0.1089
     40 H5         36.1588   44.6718    0.0950 H           1 MOL       0.0499
     41 H6         37.2727   44.7269   -1.2298 H           1 MOL       0.0499
     42 H7         39.5277   44.1423   -0.7038 H           1 MOL       0.0557
     43 H8         36.4752   42.7181    1.8466 H           1 MOL       0.0557
     44 H9         41.1786   43.4576    0.9114 H           1 MOL       0.0599
     45 H10        38.1429   42.0126    3.4350 H           1 MOL       0.0599
     46 H11        40.4951   42.3856    2.9842 H           1 MOL       0.0559
     47 H12        35.3494   43.4547   -4.2270 H           1 MOL       0.0496
     48 H13        34.4771   42.0808   -3.5721 H           1 MOL       0.0496
     49 H14        36.8255   41.6490   -5.4689 H           1 MOL       0.0576
     50 H15        34.4616   39.9501   -4.6173 H           1 MOL       0.0454
     51 H16        36.1603   39.6221   -4.3648 H           1 MOL       0.0454
     52 H17        37.6027   38.9860   -6.3393 H           1 MOL       0.0557
     53 H18        33.3897   39.1142   -6.6126 H           1 MOL       0.0557
     54 H19        37.6788   37.6416   -8.3444 H           1 MOL       0.0599
     55 H20        33.4858   37.7663   -8.6073 H           1 MOL       0.0599
     56 H21        35.6246   37.0316   -9.4874 H           1 MOL       0.0559
     57 H22        33.3244   41.2270   -6.0755 H           1 MOL       0.1876
     58 H23        31.9971   42.0384   -7.6797 H           1 MOL       0.0749
     59 H24        34.3756   43.6915   -8.5610 H           1 MOL       0.0467
     60 H25        32.8512   44.2190   -7.9406 H           1 MOL       0.0467
     61 H26        34.5974   42.8846  -10.9087 H           1 MOL       0.0557
     62 H27        30.9522   44.4980   -9.5222 H           1 MOL       0.0557
     63 H28        33.8418   43.1537  -13.1834 H           1 MOL       0.0599
     64 H29        30.2101   44.7515  -11.8044 H           1 MOL       0.0599
     65 H30        31.6478   44.0780  -13.6442 H           1 MOL       0.0559
@<TRIPOS>BOND
     1    24    25   1
     2    25    28   1
     3    25    26   1
     4    26    27  ar
     5    26    35  ar
     6    28    29   1
     7    29    30  ar
     8    29    31  ar
     9    31    33  ar
    10    33    34  ar
    11    32    34  ar
    12    30    32  ar
    13     2     1   1
    14     3     2   1
    15     2     6   1
    16     3     4  ar
    17     3     5  ar
    18    13     3   1
    19     6     7   1
    20     7     8  ar
    21     7     9  ar
    22     8    10  ar
    23     9    11  ar
    24    10    12  ar
    25    11    12  ar
    26    14    13   1
    27    14    15   1
    28    22    14   1
    29    15    16   1
    30    16    17  ar
    31    16    18  ar
    32    17    19  ar
    33    18    20  ar
    34    19    21  ar
    35    20    21  ar
    36    22    23   2
    37    22    24  am
    38     1    36   1
    39     1    37   1
    40     1    38   1
    41     2    39   1
    42     6    40   1
    43     6    41   1
    44     8    42   1
    45     9    43   1
    46    10    44   1
    47    11    45   1
    48    12    46   1
    49    13    47   1
    50    13    48   1
    51    14    49   1
    52    15    50   1
    53    15    51   1
    54    17    52   1
    55    18    53   1
    56    19    54   1
    57    20    55   1
    58    21    56   1
    59    24    57   1
    60    25    58   1
    61    28    59   1
    62    28    60   1
    63    30    61   1
    64    31    62   1
    65    32    63   1
    66    33    64   1
    67    34    65   1
@<TRIPOS>SUBSTRUCTURE
     1  MOL      2

