@<TRIPOS>MOLECULE
1os0_ligand_087
    65    67
SMALL
GAST_HUCK
****
This file was generated by PARSER (from files_GN.cpp)

@<TRIPOS>ATOM
      1 N          35.3433   41.8724   -3.1514 N.4         1 MOL       0.2351
      2 CA         36.0570   41.8368   -4.4412 C.3         1 MOL       0.0466
      3 P          35.1545   41.0496   -5.6147 P.3         1 MOL       0.0403
      4 O1P        34.4784   39.8957   -5.0643 O.co2       1 MOL      -0.6153
      5 O2P        34.0917   41.9502   -6.0056 O.co2       1 MOL      -0.6153
      6 CB         37.5191   41.3423   -4.2019 C.3         1 MOL       0.0407
      7 CG         37.6945   40.1188   -3.3589 C.ar        1 MOL      -0.0360
      8 CD1        37.6231   38.8201   -3.9217 C.ar        1 MOL      -0.0601
      9 CD2        38.0089   40.2293   -1.9807 C.ar        1 MOL      -0.0601
     10 CE1        37.8457   37.6729   -3.1362 C.ar        1 MOL      -0.0686
     11 CE2        38.2404   39.0825   -1.1971 C.ar        1 MOL      -0.0686
     12 CZ         38.1568   37.8038   -1.7731 C.ar        1 MOL      -0.0687
     13 CM         36.0407   40.6814   -6.9879 C.3         1 MOL       0.0402
     14 CA         35.3525   40.0090   -8.2308 C.3         1 MOL       0.0742
     15 CB         34.9304   38.5062   -7.9540 C.3         1 MOL       0.0021
     16 CG         35.6673   37.4486   -8.6967 C.ar        1 MOL      -0.0405
     17 CD1        36.2835   36.3744   -8.0078 C.ar        1 MOL      -0.0602
     18 CD2        35.6591   37.4294  -10.1134 C.ar        1 MOL      -0.0602
     19 CE1        36.8682   35.3063   -8.7140 C.ar        1 MOL      -0.0686
     20 CE2        36.2549   36.3655  -10.8201 C.ar        1 MOL      -0.0686
     21 CZ         36.8497   35.3000  -10.1208 C.ar        1 MOL      -0.0687
     22 C          34.3268   40.8595   -8.8468 C.2         1 MOL       0.1844
     23 O          33.1977   40.4272   -9.0612 O.2         1 MOL      -0.3964
     24 N          34.6233   42.1105   -9.2101 N.am        1 MOL      -0.2692
     25 CA         33.7830   43.0647   -9.8810 C.3         1 MOL       0.1038
     26 C          32.6567   43.5189   -9.0180 C.2         1 MOL       0.0621
     27 O          31.9209   42.6388   -8.2910 O.co2       1 MOL      -0.5664
     28 CB         33.3808   42.5856  -11.3110 C.3         1 MOL       0.0159
     29 CG         32.5414   43.5428  -12.0805 C.ar        1 MOL      -0.0392
     30 CD1        33.1196   44.4432  -13.0078 C.ar        1 MOL      -0.0602
     31 CD2        31.1339   43.5436  -11.9231 C.ar        1 MOL      -0.0602
     32 CE1        32.3050   45.2990  -13.7755 C.ar        1 MOL      -0.0686
     33 CE2        30.3215   44.4082  -12.6812 C.ar        1 MOL      -0.0686
     34 CZ         30.9071   45.2728  -13.6227 C.ar        1 MOL      -0.0687
     35 OXT        32.0964   44.7371   -9.2226 O.co2       1 MOL      -0.5664
     36 H1         35.8834   42.4348   -2.4839 H           1 MOL       0.2014
     37 H2         35.2670   40.9153   -2.7831 H           1 MOL       0.2014
     38 H3         34.4156   42.2974   -3.2545 H           1 MOL       0.2014
     39 H4         36.1276   42.8792   -4.7701 H           1 MOL       0.1089
     40 H5         38.0539   42.1698   -3.7246 H           1 MOL       0.0499
     41 H6         38.0205   41.1945   -5.1584 H           1 MOL       0.0499
     42 H7         37.4203   38.6944   -4.9114 H           1 MOL       0.0557
     43 H8         38.0756   41.1506   -1.5375 H           1 MOL       0.0557
     44 H9         37.7815   36.7453   -3.5604 H           1 MOL       0.0599
     45 H10        38.4673   39.1819   -0.2054 H           1 MOL       0.0599
     46 H11        38.3238   36.9754   -1.2059 H           1 MOL       0.0559
     47 H12        36.8492   40.0229   -6.6761 H           1 MOL       0.0496
     48 H13        36.5196   41.6108   -7.3033 H           1 MOL       0.0496
     49 H14        36.1566   39.9773   -8.9788 H           1 MOL       0.0576
     50 H15        33.8782   38.3322   -8.1830 H           1 MOL       0.0454
     51 H16        35.0057   38.2943   -6.8858 H           1 MOL       0.0454
     52 H17        36.2926   36.3568   -6.9872 H           1 MOL       0.0557
     53 H18        35.2188   38.1842  -10.6468 H           1 MOL       0.0557
     54 H19        37.2882   34.5329   -8.1981 H           1 MOL       0.0599
     55 H20        36.2437   36.3541  -11.8432 H           1 MOL       0.0599
     56 H21        37.2538   34.5084  -10.6240 H           1 MOL       0.0559
     57 H22        35.5288   42.4004   -9.0367 H           1 MOL       0.1876
     58 H23        34.4188   43.9481  -10.0243 H           1 MOL       0.0749
     59 H24        32.8517   41.6318  -11.2599 H           1 MOL       0.0467
     60 H25        34.2929   42.3856  -11.8769 H           1 MOL       0.0467
     61 H26        34.1345   44.4613  -13.1510 H           1 MOL       0.0557
     62 H27        30.6935   42.9035  -11.2588 H           1 MOL       0.0557
     63 H28        32.7323   45.9401  -14.4452 H           1 MOL       0.0599
     64 H29        29.3082   44.3975  -12.5542 H           1 MOL       0.0599
     65 H30        30.3211   45.8827  -14.1904 H           1 MOL       0.0559
@<TRIPOS>BOND
     1    24    25   1
     2    25    28   1
     3    25    26   1
     4    26    27  ar
     5    26    35  ar
     6    28    29   1
     7    29    30  ar
     8    29    31  ar
     9    31    33  ar
    10    33    34  ar
    11    32    34  ar
    12    30    32  ar
    13     2     1   1
    14     3     2   1
    15     2     6   1
    16     3     4  ar
    17     3     5  ar
    18    13     3   1
    19     6     7   1
    20     7     8  ar
    21     7     9  ar
    22     8    10  ar
    23     9    11  ar
    24    10    12  ar
    25    11    12  ar
    26    14    13   1
    27    14    15   1
    28    22    14   1
    29    15    16   1
    30    16    17  ar
    31    16    18  ar
    32    17    19  ar
    33    18    20  ar
    34    19    21  ar
    35    20    21  ar
    36    22    23   2
    37    22    24  am
    38     1    36   1
    39     1    37   1
    40     1    38   1
    41     2    39   1
    42     6    40   1
    43     6    41   1
    44     8    42   1
    45     9    43   1
    46    10    44   1
    47    11    45   1
    48    12    46   1
    49    13    47   1
    50    13    48   1
    51    14    49   1
    52    15    50   1
    53    15    51   1
    54    17    52   1
    55    18    53   1
    56    19    54   1
    57    20    55   1
    58    21    56   1
    59    24    57   1
    60    25    58   1
    61    28    59   1
    62    28    60   1
    63    30    61   1
    64    31    62   1
    65    32    63   1
    66    33    64   1
    67    34    65   1
@<TRIPOS>SUBSTRUCTURE
     1  MOL      2

