@<TRIPOS>MOLECULE
1os0_ligand_042
    65    67
SMALL
GAST_HUCK
****
This file was generated by PARSER (from files_GN.cpp)

@<TRIPOS>ATOM
      1 N          37.4028   41.5870   -4.9846 N.4         1 MOL       0.2351
      2 CA         35.9645   41.4141   -4.7256 C.3         1 MOL       0.0466
      3 P          35.0074   42.4111   -5.6778 P.3         1 MOL       0.0403
      4 O1P        34.4081   43.4299   -4.8530 O.co2       1 MOL      -0.6153
      5 O2P        35.8262   43.2124   -6.5534 O.co2       1 MOL      -0.6153
      6 CB         35.6644   41.4168   -3.1913 C.3         1 MOL       0.0407
      7 CG         36.0779   42.5214   -2.2701 C.ar        1 MOL      -0.0360
      8 CD1        36.7598   43.6994   -2.6708 C.ar        1 MOL      -0.0601
      9 CD2        35.7596   42.3771   -0.8966 C.ar        1 MOL      -0.0601
     10 CE1        37.1089   44.6893   -1.7276 C.ar        1 MOL      -0.0686
     11 CE2        36.1065   43.3628    0.0430 C.ar        1 MOL      -0.0686
     12 CZ         36.7810   44.5229   -0.3712 C.ar        1 MOL      -0.0687
     13 CM         33.8000   41.6286   -6.5492 C.3         1 MOL       0.0402
     14 CA         33.9678   41.5611   -8.1181 C.3         1 MOL       0.0742
     15 CB         33.6094   40.1839   -8.7645 C.3         1 MOL       0.0021
     16 CG         34.2786   38.9818   -8.1919 C.ar        1 MOL      -0.0405
     17 CD1        35.6207   38.6707   -8.5130 C.ar        1 MOL      -0.0602
     18 CD2        33.5690   38.0849   -7.3530 C.ar        1 MOL      -0.0602
     19 CE1        36.2460   37.5211   -7.9894 C.ar        1 MOL      -0.0686
     20 CE2        34.1807   36.9187   -6.8527 C.ar        1 MOL      -0.0686
     21 CZ         35.5208   36.6361   -7.1681 C.ar        1 MOL      -0.0687
     22 C          33.2178   42.6245   -8.7869 C.2         1 MOL       0.1844
     23 O          32.0457   42.8329   -8.4715 O.2         1 MOL      -0.3964
     24 N          33.7644   43.3556   -9.7724 N.am        1 MOL      -0.2692
     25 CA         33.0995   44.2260  -10.7083 C.3         1 MOL       0.1038
     26 C          32.0076   45.0653  -10.1478 C.2         1 MOL       0.0621
     27 O          31.4913   44.8194   -8.9072 O.co2       1 MOL      -0.5664
     28 CB         32.5923   43.4443  -11.9759 C.3         1 MOL       0.0159
     29 CG         32.5808   44.2589  -13.2209 C.ar        1 MOL      -0.0392
     30 CD1        33.8131   44.6622  -13.7910 C.ar        1 MOL      -0.0602
     31 CD2        31.3813   44.6492  -13.8700 C.ar        1 MOL      -0.0602
     32 CE1        33.8551   45.4290  -14.9694 C.ar        1 MOL      -0.0686
     33 CE2        31.4225   45.4218  -15.0521 C.ar        1 MOL      -0.0686
     34 CZ         32.6605   45.8024  -15.6030 C.ar        1 MOL      -0.0687
     35 OXT        31.6099   46.1747  -10.8021 O.co2       1 MOL      -0.5664
     36 H1         37.9377   40.9892   -4.3492 H           1 MOL       0.2014
     37 H2         37.6834   42.5602   -4.8490 H           1 MOL       0.2014
     38 H3         37.6224   41.3201   -5.9468 H           1 MOL       0.2014
     39 H4         35.7620   40.3932   -5.0620 H           1 MOL       0.1089
     40 H5         36.1365   40.5114   -2.7964 H           1 MOL       0.0499
     41 H6         34.5868   41.2856   -3.0643 H           1 MOL       0.0499
     42 H7         37.0040   43.8606   -3.6459 H           1 MOL       0.0557
     43 H8         35.2659   41.5433   -0.5684 H           1 MOL       0.0557
     44 H9         37.5987   45.5351   -2.0346 H           1 MOL       0.0599
     45 H10        35.8603   43.2396    1.0258 H           1 MOL       0.0599
     46 H11        37.0334   45.2388    0.3084 H           1 MOL       0.0559
     47 H12        32.8428   42.0938   -6.2795 H           1 MOL       0.0496
     48 H13        33.7255   40.6146   -6.1557 H           1 MOL       0.0496
     49 H14        35.0215   41.7228   -8.3760 H           1 MOL       0.0576
     50 H15        33.8950   40.2181   -9.8149 H           1 MOL       0.0454
     51 H16        32.5214   40.0515   -8.7366 H           1 MOL       0.0454
     52 H17        36.1677   39.2799   -9.1221 H           1 MOL       0.0557
     53 H18        32.5890   38.2575   -7.1124 H           1 MOL       0.0557
     54 H19        37.2267   37.3264   -8.2069 H           1 MOL       0.0599
     55 H20        33.6539   36.2754   -6.2529 H           1 MOL       0.0599
     56 H21        35.9701   35.7929   -6.8061 H           1 MOL       0.0559
     57 H22        34.7238   43.2392   -9.9193 H           1 MOL       0.1876
     58 H23        33.8760   44.9456  -11.0155 H           1 MOL       0.0749
     59 H24        31.5969   43.0317  -11.7789 H           1 MOL       0.0467
     60 H25        33.2437   42.5810  -12.1562 H           1 MOL       0.0467
     61 H26        34.6873   44.4007  -13.3391 H           1 MOL       0.0557
     62 H27        30.4739   44.3835  -13.4870 H           1 MOL       0.0557
     63 H28        34.7601   45.7073  -15.3671 H           1 MOL       0.0599
     64 H29        30.5526   45.7023  -15.5120 H           1 MOL       0.0599
     65 H30        32.6910   46.3560  -16.4673 H           1 MOL       0.0559
@<TRIPOS>BOND
     1    24    25   1
     2    25    28   1
     3    25    26   1
     4    26    27  ar
     5    26    35  ar
     6    28    29   1
     7    29    30  ar
     8    29    31  ar
     9    31    33  ar
    10    33    34  ar
    11    32    34  ar
    12    30    32  ar
    13     2     1   1
    14     3     2   1
    15     2     6   1
    16     3     4  ar
    17     3     5  ar
    18    13     3   1
    19     6     7   1
    20     7     8  ar
    21     7     9  ar
    22     8    10  ar
    23     9    11  ar
    24    10    12  ar
    25    11    12  ar
    26    14    13   1
    27    14    15   1
    28    22    14   1
    29    15    16   1
    30    16    17  ar
    31    16    18  ar
    32    17    19  ar
    33    18    20  ar
    34    19    21  ar
    35    20    21  ar
    36    22    23   2
    37    22    24  am
    38     1    36   1
    39     1    37   1
    40     1    38   1
    41     2    39   1
    42     6    40   1
    43     6    41   1
    44     8    42   1
    45     9    43   1
    46    10    44   1
    47    11    45   1
    48    12    46   1
    49    13    47   1
    50    13    48   1
    51    14    49   1
    52    15    50   1
    53    15    51   1
    54    17    52   1
    55    18    53   1
    56    19    54   1
    57    20    55   1
    58    21    56   1
    59    24    57   1
    60    25    58   1
    61    28    59   1
    62    28    60   1
    63    30    61   1
    64    31    62   1
    65    32    63   1
    66    33    64   1
    67    34    65   1
@<TRIPOS>SUBSTRUCTURE
     1  MOL      2

