@<TRIPOS>MOLECULE
1os0_ligand_056
    65    67
SMALL
GAST_HUCK
****
This file was generated by PARSER (from files_GN.cpp)

@<TRIPOS>ATOM
      1 N          33.2174   42.3804   -6.4987 N.4         1 MOL       0.2351
      2 CA         33.0285   42.1577   -7.9439 C.3         1 MOL       0.0466
      3 P          33.7609   40.7143   -8.3901 P.3         1 MOL       0.0403
      4 O1P        32.8688   39.6518   -7.9878 O.co2       1 MOL      -0.6153
      5 O2P        33.7641   40.6397   -9.8306 O.co2       1 MOL      -0.6153
      6 CB         33.5163   43.4100   -8.7421 C.3         1 MOL       0.0407
      7 CG         32.9277   43.5156  -10.1072 C.ar        1 MOL      -0.0360
      8 CD1        33.6438   43.1134  -11.2598 C.ar        1 MOL      -0.0601
      9 CD2        31.6159   44.0252  -10.2712 C.ar        1 MOL      -0.0601
     10 CE1        33.0587   43.1966  -12.5381 C.ar        1 MOL      -0.0686
     11 CE2        31.0304   44.1125  -11.5467 C.ar        1 MOL      -0.0686
     12 CZ         31.7496   43.6934  -12.6821 C.ar        1 MOL      -0.0687
     13 CM         35.3226   40.5257   -7.7847 C.3         1 MOL       0.0402
     14 CA         35.6381   39.2711   -6.8665 C.3         1 MOL       0.0742
     15 CB         36.2264   38.0563   -7.6635 C.3         1 MOL       0.0021
     16 CG         35.6120   37.8123   -9.0003 C.ar        1 MOL      -0.0405
     17 CD1        36.1681   38.3980  -10.1655 C.ar        1 MOL      -0.0602
     18 CD2        34.4479   37.0223   -9.1309 C.ar        1 MOL      -0.0602
     19 CE1        35.5844   38.1856  -11.4287 C.ar        1 MOL      -0.0686
     20 CE2        33.8665   36.8027  -10.3969 C.ar        1 MOL      -0.0686
     21 CZ         34.4387   37.3807  -11.5474 C.ar        1 MOL      -0.0687
     22 C          36.5243   39.5430   -5.7232 C.2         1 MOL       0.1844
     23 O          36.8542   38.6043   -5.0094 O.2         1 MOL      -0.3964
     24 N          37.0507   40.7476   -5.4982 N.am        1 MOL      -0.2692
     25 CA         37.7949   41.1980   -4.3586 C.3         1 MOL       0.1038
     26 C          38.8609   40.2353   -3.9880 C.2         1 MOL       0.0621
     27 O          39.4062   39.4386   -4.9406 O.co2       1 MOL      -0.5664
     28 CB         36.8213   41.5571   -3.1795 C.3         1 MOL       0.0159
     29 CG         37.3795   42.5402   -2.2122 C.ar        1 MOL      -0.0392
     30 CD1        37.9831   42.1353   -0.9967 C.ar        1 MOL      -0.0602
     31 CD2        37.3111   43.9232   -2.5064 C.ar        1 MOL      -0.0602
     32 CE1        38.5403   43.0866   -0.1189 C.ar        1 MOL      -0.0686
     33 CE2        37.8589   44.8742   -1.6286 C.ar        1 MOL      -0.0686
     34 CZ         38.4819   44.4537   -0.4368 C.ar        1 MOL      -0.0687
     35 OXT        39.4838   40.2984   -2.7901 O.co2       1 MOL      -0.5664
     36 H1         32.6680   43.1861   -6.2039 H           1 MOL       0.2014
     37 H2         34.2011   42.5691   -6.2943 H           1 MOL       0.2014
     38 H3         32.9224   41.5586   -5.9701 H           1 MOL       0.2014
     39 H4         31.9523   42.0364   -8.0917 H           1 MOL       0.1089
     40 H5         34.6124   43.4230   -8.7901 H           1 MOL       0.0499
     41 H6         33.2243   44.3116   -8.1983 H           1 MOL       0.0499
     42 H7         34.5901   42.7390  -11.1752 H           1 MOL       0.0557
     43 H8         31.0799   44.3396   -9.4595 H           1 MOL       0.0557
     44 H9         33.5817   42.8887  -13.3621 H           1 MOL       0.0599
     45 H10        30.0806   44.4819  -11.6494 H           1 MOL       0.0599
     46 H11        31.3238   43.7565  -13.6086 H           1 MOL       0.0559
     47 H12        35.5212   41.4481   -7.2221 H           1 MOL       0.0496
     48 H13        36.0300   40.5420   -8.6207 H           1 MOL       0.0496
     49 H14        34.6964   38.9297   -6.4139 H           1 MOL       0.0576
     50 H15        36.1076   37.1404   -7.0736 H           1 MOL       0.0454
     51 H16        37.3055   38.2018   -7.7797 H           1 MOL       0.0454
     52 H17        36.9959   38.9962  -10.1023 H           1 MOL       0.0557
     53 H18        34.0119   36.6014   -8.3090 H           1 MOL       0.0557
     54 H19        35.9943   38.6154  -12.2600 H           1 MOL       0.0599
     55 H20        33.0295   36.2190  -10.4856 H           1 MOL       0.0599
     56 H21        34.0222   37.2153  -12.4650 H           1 MOL       0.0559
     57 H22        36.8839   41.4234   -6.1864 H           1 MOL       0.1876
     58 H23        38.2994   42.1132   -4.6916 H           1 MOL       0.0749
     59 H24        36.5419   40.6281   -2.6715 H           1 MOL       0.0467
     60 H25        35.8887   41.9792   -3.5800 H           1 MOL       0.0467
     61 H26        38.0394   41.1436   -0.7498 H           1 MOL       0.0557
     62 H27        36.8649   44.2423   -3.3675 H           1 MOL       0.0557
     63 H28        38.9851   42.7830    0.7473 H           1 MOL       0.0599
     64 H29        37.8095   45.8669   -1.8555 H           1 MOL       0.0599
     65 H30        38.8877   45.1452    0.1963 H           1 MOL       0.0559
@<TRIPOS>BOND
     1    24    25   1
     2    25    28   1
     3    25    26   1
     4    26    27  ar
     5    26    35  ar
     6    28    29   1
     7    29    30  ar
     8    29    31  ar
     9    31    33  ar
    10    33    34  ar
    11    32    34  ar
    12    30    32  ar
    13     2     1   1
    14     3     2   1
    15     2     6   1
    16     3     4  ar
    17     3     5  ar
    18    13     3   1
    19     6     7   1
    20     7     8  ar
    21     7     9  ar
    22     8    10  ar
    23     9    11  ar
    24    10    12  ar
    25    11    12  ar
    26    14    13   1
    27    14    15   1
    28    22    14   1
    29    15    16   1
    30    16    17  ar
    31    16    18  ar
    32    17    19  ar
    33    18    20  ar
    34    19    21  ar
    35    20    21  ar
    36    22    23   2
    37    22    24  am
    38     1    36   1
    39     1    37   1
    40     1    38   1
    41     2    39   1
    42     6    40   1
    43     6    41   1
    44     8    42   1
    45     9    43   1
    46    10    44   1
    47    11    45   1
    48    12    46   1
    49    13    47   1
    50    13    48   1
    51    14    49   1
    52    15    50   1
    53    15    51   1
    54    17    52   1
    55    18    53   1
    56    19    54   1
    57    20    55   1
    58    21    56   1
    59    24    57   1
    60    25    58   1
    61    28    59   1
    62    28    60   1
    63    30    61   1
    64    31    62   1
    65    32    63   1
    66    33    64   1
    67    34    65   1
@<TRIPOS>SUBSTRUCTURE
     1  MOL      2

