@<TRIPOS>MOLECULE
1os0_ligand_081
    65    67
SMALL
GAST_HUCK
****
This file was generated by PARSER (from files_GN.cpp)

@<TRIPOS>ATOM
      1 N          34.2235   41.1351  -10.2399 N.4         1 MOL       0.2351
      2 CA         32.8952   41.5040   -9.7211 C.3         1 MOL       0.0466
      3 P          32.4626   43.0577  -10.2073 P.3         1 MOL       0.0403
      4 O1P        31.6075   43.6690   -9.2185 O.co2       1 MOL      -0.6153
      5 O2P        33.6479   43.8800  -10.2671 O.co2       1 MOL      -0.6153
      6 CB         32.8047   41.1543   -8.2025 C.3         1 MOL       0.0407
      7 CG         33.8358   41.7387   -7.2917 C.ar        1 MOL      -0.0360
      8 CD1        33.7665   43.0967   -6.9067 C.ar        1 MOL      -0.0601
      9 CD2        34.8520   40.9292   -6.7247 C.ar        1 MOL      -0.0601
     10 CE1        34.6964   43.6376   -5.9970 C.ar        1 MOL      -0.0686
     11 CE2        35.7758   41.4670   -5.8066 C.ar        1 MOL      -0.0686
     12 CZ         35.6984   42.8220   -5.4455 C.ar        1 MOL      -0.0687
     13 CM         31.6833   43.0396  -11.6937 C.3         1 MOL       0.0402
     14 CA         30.9635   44.3441  -12.2172 C.3         1 MOL       0.0742
     15 CB         31.9709   45.4963  -12.5704 C.3         1 MOL       0.0021
     16 CG         32.6973   45.4091  -13.8752 C.ar        1 MOL      -0.0405
     17 CD1        34.1052   45.2607  -13.9341 C.ar        1 MOL      -0.0602
     18 CD2        31.9920   45.5853  -15.0910 C.ar        1 MOL      -0.0602
     19 CE1        34.7796   45.2627  -15.1748 C.ar        1 MOL      -0.0686
     20 CE2        32.6569   45.5646  -16.3325 C.ar        1 MOL      -0.0686
     21 CZ         34.0535   45.3923  -16.3768 C.ar        1 MOL      -0.0687
     22 C          29.9728   44.0883  -13.2920 C.2         1 MOL       0.1844
     23 O          29.7845   42.9456  -13.6923 O.2         1 MOL      -0.3964
     24 N          29.2366   45.0807  -13.7861 N.am        1 MOL      -0.2692
     25 CA         28.1629   45.0939  -14.7608 C.3         1 MOL       0.1038
     26 C          27.3733   43.8484  -14.9626 C.2         1 MOL       0.0621
     27 O          27.2323   42.9673  -13.9441 O.co2       1 MOL      -0.5664
     28 CB         28.5647   45.8042  -16.0975 C.3         1 MOL       0.0159
     29 CG         29.1418   45.0087  -17.2266 C.ar        1 MOL      -0.0392
     30 CD1        28.8718   45.3937  -18.5660 C.ar        1 MOL      -0.0602
     31 CD2        30.0001   43.8969  -17.0309 C.ar        1 MOL      -0.0602
     32 CE1        29.3893   44.6715  -19.6556 C.ar        1 MOL      -0.0686
     33 CE2        30.5089   43.1606  -18.1155 C.ar        1 MOL      -0.0686
     34 CZ         30.1944   43.5405  -19.4315 C.ar        1 MOL      -0.0687
     35 OXT        26.3871   43.8333  -15.8951 O.co2       1 MOL      -0.5664
     36 H1         34.4062   40.1489  -10.0385 H           1 MOL       0.2014
     37 H2         34.9452   41.7045   -9.7921 H           1 MOL       0.2014
     38 H3         34.2535   41.2787  -11.2507 H           1 MOL       0.2014
     39 H4         32.1941   40.8270  -10.2139 H           1 MOL       0.1089
     40 H5         32.8549   40.0625   -8.1286 H           1 MOL       0.0499
     41 H6         31.8151   41.4231   -7.8266 H           1 MOL       0.0499
     42 H7         33.0250   43.6994   -7.2677 H           1 MOL       0.0557
     43 H8         34.9207   39.9379   -6.9638 H           1 MOL       0.0557
     44 H9         34.6312   44.6212   -5.7302 H           1 MOL       0.0599
     45 H10        36.4990   40.8704   -5.3985 H           1 MOL       0.0599
     46 H11        36.3670   43.2128   -4.7761 H           1 MOL       0.0559
     47 H12        30.9269   42.2589  -11.5888 H           1 MOL       0.0496
     48 H13        32.3957   42.6984  -12.4496 H           1 MOL       0.0496
     49 H14        30.3617   44.7157  -11.3790 H           1 MOL       0.0576
     50 H15        32.7004   45.5722  -11.7576 H           1 MOL       0.0454
     51 H16        31.4373   46.4513  -12.5505 H           1 MOL       0.0454
     52 H17        34.6599   45.1742  -13.0744 H           1 MOL       0.0557
     53 H18        30.9763   45.7452  -15.0712 H           1 MOL       0.0557
     54 H19        35.7967   45.1712  -15.2125 H           1 MOL       0.0599
     55 H20        32.1315   45.6939  -17.2015 H           1 MOL       0.0599
     56 H21        34.5395   45.3796  -17.2796 H           1 MOL       0.0559
     57 H22        29.4441   45.9537  -13.4204 H           1 MOL       0.1876
     58 H23        27.4405   45.7709  -14.2919 H           1 MOL       0.0749
     59 H24        29.2622   46.6164  -15.8734 H           1 MOL       0.0467
     60 H25        27.6570   46.2909  -16.4673 H           1 MOL       0.0467
     61 H26        28.2860   46.2119  -18.7593 H           1 MOL       0.0557
     62 H27        30.2620   43.6067  -16.0944 H           1 MOL       0.0557
     63 H28        29.1726   44.9617  -20.6124 H           1 MOL       0.0599
     64 H29        31.1091   42.3462  -17.9488 H           1 MOL       0.0599
     65 H30        30.5686   43.0103  -20.2236 H           1 MOL       0.0559
@<TRIPOS>BOND
     1    24    25   1
     2    25    28   1
     3    25    26   1
     4    26    27  ar
     5    26    35  ar
     6    28    29   1
     7    29    30  ar
     8    29    31  ar
     9    31    33  ar
    10    33    34  ar
    11    32    34  ar
    12    30    32  ar
    13     2     1   1
    14     3     2   1
    15     2     6   1
    16     3     4  ar
    17     3     5  ar
    18    13     3   1
    19     6     7   1
    20     7     8  ar
    21     7     9  ar
    22     8    10  ar
    23     9    11  ar
    24    10    12  ar
    25    11    12  ar
    26    14    13   1
    27    14    15   1
    28    22    14   1
    29    15    16   1
    30    16    17  ar
    31    16    18  ar
    32    17    19  ar
    33    18    20  ar
    34    19    21  ar
    35    20    21  ar
    36    22    23   2
    37    22    24  am
    38     1    36   1
    39     1    37   1
    40     1    38   1
    41     2    39   1
    42     6    40   1
    43     6    41   1
    44     8    42   1
    45     9    43   1
    46    10    44   1
    47    11    45   1
    48    12    46   1
    49    13    47   1
    50    13    48   1
    51    14    49   1
    52    15    50   1
    53    15    51   1
    54    17    52   1
    55    18    53   1
    56    19    54   1
    57    20    55   1
    58    21    56   1
    59    24    57   1
    60    25    58   1
    61    28    59   1
    62    28    60   1
    63    30    61   1
    64    31    62   1
    65    32    63   1
    66    33    64   1
    67    34    65   1
@<TRIPOS>SUBSTRUCTURE
     1  MOL      2

