@<TRIPOS>MOLECULE
1os0_ligand_064
    65    67
SMALL
GAST_HUCK
****
This file was generated by PARSER (from files_GN.cpp)

@<TRIPOS>ATOM
      1 N          33.7949   42.5007   -6.0005 N.4         1 MOL       0.2351
      2 CA         35.0203   41.7152   -6.2343 C.3         1 MOL       0.0466
      3 P          34.7311   40.5213   -7.3891 P.3         1 MOL       0.0403
      4 O1P        33.3571   40.0648   -7.3395 O.co2       1 MOL      -0.6153
      5 O2P        34.8624   41.1399   -8.6881 O.co2       1 MOL      -0.6153
      6 CB         35.5918   41.1803   -4.8810 C.3         1 MOL       0.0407
      7 CG         35.7137   42.1964   -3.7968 C.ar        1 MOL      -0.0360
      8 CD1        36.7455   43.1665   -3.8341 C.ar        1 MOL      -0.0601
      9 CD2        34.8473   42.1759   -2.6772 C.ar        1 MOL      -0.0601
     10 CE1        36.8934   44.0958   -2.7851 C.ar        1 MOL      -0.0686
     11 CE2        34.9966   43.1038   -1.6334 C.ar        1 MOL      -0.0686
     12 CZ         36.0151   44.0691   -1.6893 C.ar        1 MOL      -0.0687
     13 CM         35.7869   39.2412   -7.2601 C.3         1 MOL       0.0402
     14 CA         35.6992   38.0304   -8.2601 C.3         1 MOL       0.0742
     15 CB         36.1459   38.3965   -9.7141 C.3         1 MOL       0.0021
     16 CG         36.4971   37.2171  -10.5676 C.ar        1 MOL      -0.0405
     17 CD1        35.5333   36.6387  -11.4311 C.ar        1 MOL      -0.0602
     18 CD2        37.8024   36.6608  -10.5437 C.ar        1 MOL      -0.0602
     19 CE1        35.8765   35.5587  -12.2681 C.ar        1 MOL      -0.0686
     20 CE2        38.1390   35.5649  -11.3584 C.ar        1 MOL      -0.0686
     21 CZ         37.1780   35.0248  -12.2343 C.ar        1 MOL      -0.0687
     22 C          36.4952   36.9051   -7.7301 C.2         1 MOL       0.1844
     23 O          36.0336   35.7723   -7.7940 O.2         1 MOL      -0.3964
     24 N          37.6747   37.1343   -7.1660 N.am        1 MOL      -0.2692
     25 CA         38.6130   36.1890   -6.6219 C.3         1 MOL       0.1038
     26 C          38.6428   36.2908   -5.1460 C.2         1 MOL       0.0621
     27 O          37.6062   36.8052   -4.4313 O.co2       1 MOL      -0.5664
     28 CB         40.0235   36.4894   -7.2566 C.3         1 MOL       0.0159
     29 CG         40.6949   35.3534   -7.9505 C.ar        1 MOL      -0.0392
     30 CD1        39.9840   34.5577   -8.8827 C.ar        1 MOL      -0.0602
     31 CD2        42.0868   35.1315   -7.7958 C.ar        1 MOL      -0.0602
     32 CE1        40.6412   33.5604   -9.6247 C.ar        1 MOL      -0.0686
     33 CE2        42.7500   34.1490   -8.5579 C.ar        1 MOL      -0.0686
     34 CZ         42.0253   33.3609   -9.4714 C.ar        1 MOL      -0.0687
     35 OXT        39.7263   35.8582   -4.4633 O.co2       1 MOL      -0.5664
     36 H1         33.9803   43.2509   -5.3341 H           1 MOL       0.2014
     37 H2         33.0790   41.8922   -5.6021 H           1 MOL       0.2014
     38 H3         33.4586   42.9077   -6.8755 H           1 MOL       0.2014
     39 H4         35.7603   42.3984   -6.6601 H           1 MOL       0.1089
     40 H5         36.5990   40.7846   -5.0384 H           1 MOL       0.0499
     41 H6         34.9701   40.3446   -4.5487 H           1 MOL       0.0499
     42 H7         37.4001   43.1976   -4.6208 H           1 MOL       0.0557
     43 H8         34.0961   41.4843   -2.6167 H           1 MOL       0.0557
     44 H9         37.6453   44.7887   -2.8220 H           1 MOL       0.0599
     45 H10        34.3599   43.0735   -0.8335 H           1 MOL       0.0599
     46 H11        36.1247   44.7430   -0.9281 H           1 MOL       0.0559
     47 H12        35.6472   38.8493   -6.2480 H           1 MOL       0.0496
     48 H13        36.7941   39.6664   -7.3167 H           1 MOL       0.0496
     49 H14        34.6461   37.7236   -8.3071 H           1 MOL       0.0576
     50 H15        36.9904   39.0904   -9.6739 H           1 MOL       0.0454
     51 H16        35.3423   38.9356  -10.2163 H           1 MOL       0.0454
     52 H17        34.5765   37.0085  -11.4573 H           1 MOL       0.0557
     53 H18        38.5180   37.0540   -9.9283 H           1 MOL       0.0557
     54 H19        35.1773   35.1640  -12.9024 H           1 MOL       0.0599
     55 H20        39.0865   35.1748  -11.3284 H           1 MOL       0.0599
     56 H21        37.4295   34.2524  -12.8557 H           1 MOL       0.0559
     57 H22        37.9453   38.0630   -7.0986 H           1 MOL       0.1876
     58 H23        38.2956   35.1647   -6.8501 H           1 MOL       0.0749
     59 H24        40.6887   36.9131   -6.4936 H           1 MOL       0.0467
     60 H25        39.9314   37.2702   -8.0152 H           1 MOL       0.0467
     61 H26        38.9806   34.7072   -9.0399 H           1 MOL       0.0557
     62 H27        42.6371   35.7028   -7.1503 H           1 MOL       0.0557
     63 H28        40.1127   32.9842  -10.2859 H           1 MOL       0.0599
     64 H29        43.7600   34.0239   -8.4620 H           1 MOL       0.0599
     65 H30        42.5069   32.6530  -10.0322 H           1 MOL       0.0559
@<TRIPOS>BOND
     1    24    25   1
     2    25    28   1
     3    25    26   1
     4    26    27  ar
     5    26    35  ar
     6    28    29   1
     7    29    30  ar
     8    29    31  ar
     9    31    33  ar
    10    33    34  ar
    11    32    34  ar
    12    30    32  ar
    13     2     1   1
    14     3     2   1
    15     2     6   1
    16     3     4  ar
    17     3     5  ar
    18    13     3   1
    19     6     7   1
    20     7     8  ar
    21     7     9  ar
    22     8    10  ar
    23     9    11  ar
    24    10    12  ar
    25    11    12  ar
    26    14    13   1
    27    14    15   1
    28    22    14   1
    29    15    16   1
    30    16    17  ar
    31    16    18  ar
    32    17    19  ar
    33    18    20  ar
    34    19    21  ar
    35    20    21  ar
    36    22    23   2
    37    22    24  am
    38     1    36   1
    39     1    37   1
    40     1    38   1
    41     2    39   1
    42     6    40   1
    43     6    41   1
    44     8    42   1
    45     9    43   1
    46    10    44   1
    47    11    45   1
    48    12    46   1
    49    13    47   1
    50    13    48   1
    51    14    49   1
    52    15    50   1
    53    15    51   1
    54    17    52   1
    55    18    53   1
    56    19    54   1
    57    20    55   1
    58    21    56   1
    59    24    57   1
    60    25    58   1
    61    28    59   1
    62    28    60   1
    63    30    61   1
    64    31    62   1
    65    32    63   1
    66    33    64   1
    67    34    65   1
@<TRIPOS>SUBSTRUCTURE
     1  MOL      2

