@<TRIPOS>MOLECULE
1os0_ligand_091
    65    67
SMALL
GAST_HUCK
****
This file was generated by PARSER (from files_GN.cpp)

@<TRIPOS>ATOM
      1 N          37.8057   42.3449   -5.0906 N.4         1 MOL       0.2351
      2 CA         36.8317   41.3406   -5.5645 C.3         1 MOL       0.0466
      3 P          35.3065   42.0235   -5.7087 P.3         1 MOL       0.0403
      4 O1P        34.6759   42.0096   -4.4123 O.co2       1 MOL      -0.6153
      5 O2P        35.4941   43.4062   -6.0647 O.co2       1 MOL      -0.6153
      6 CB         36.8838   40.0776   -4.6501 C.3         1 MOL       0.0407
      7 CG         38.2139   39.4079   -4.6791 C.ar        1 MOL      -0.0360
      8 CD1        39.1772   39.6579   -3.6726 C.ar        1 MOL      -0.0601
      9 CD2        38.5597   38.5540   -5.7532 C.ar        1 MOL      -0.0601
     10 CE1        40.4560   39.0735   -3.7410 C.ar        1 MOL      -0.0686
     11 CE2        39.8366   37.9668   -5.8206 C.ar        1 MOL      -0.0686
     12 CZ         40.7853   38.2281   -4.8151 C.ar        1 MOL      -0.0687
     13 CM         34.3505   41.2253   -6.8411 C.3         1 MOL       0.0402
     14 CA         33.4673   42.1019   -7.7992 C.3         1 MOL       0.0742
     15 CB         34.2875   42.7830   -8.9552 C.3         1 MOL       0.0021
     16 CG         33.5656   43.6791   -9.9137 C.ar        1 MOL      -0.0405
     17 CD1        34.0170   43.7801  -11.2518 C.ar        1 MOL      -0.0602
     18 CD2        32.4937   44.5166   -9.5159 C.ar        1 MOL      -0.0602
     19 CE1        33.4095   44.6582  -12.1672 C.ar        1 MOL      -0.0686
     20 CE2        31.8619   45.3752  -10.4347 C.ar        1 MOL      -0.0686
     21 CZ         32.3233   45.4511  -11.7605 C.ar        1 MOL      -0.0687
     22 C          32.3657   41.3322   -8.3895 C.2         1 MOL       0.1844
     23 O          31.2541   41.8419   -8.4180 O.2         1 MOL      -0.3964
     24 N          32.5827   40.1289   -8.9179 N.am        1 MOL      -0.2692
     25 CA         31.6763   39.2759   -9.6385 C.3         1 MOL       0.1038
     26 C          30.2759   39.2262   -9.1240 C.2         1 MOL       0.0621
     27 O          29.3380   40.0374   -9.6696 O.co2       1 MOL      -0.5664
     28 CB         32.3086   37.8608   -9.8347 C.3         1 MOL       0.0159
     29 CG         32.5966   36.9950   -8.6504 C.ar        1 MOL      -0.0392
     30 CD1        32.9849   35.6521   -8.8879 C.ar        1 MOL      -0.0602
     31 CD2        32.4868   37.4110   -7.2983 C.ar        1 MOL      -0.0602
     32 CE1        33.2048   34.7476   -7.8308 C.ar        1 MOL      -0.0686
     33 CE2        32.7153   36.5159   -6.2366 C.ar        1 MOL      -0.0686
     34 CZ         33.0607   35.1798   -6.5025 C.ar        1 MOL      -0.0687
     35 OXT        29.7980   38.1652   -8.4299 O.co2       1 MOL      -0.5664
     36 H1         38.7442   41.9443   -5.0856 H           1 MOL       0.2014
     37 H2         37.5614   42.6503   -4.1475 H           1 MOL       0.2014
     38 H3         37.8082   43.1501   -5.7188 H           1 MOL       0.2014
     39 H4         37.1492   41.0576   -6.5688 H           1 MOL       0.1089
     40 H5         36.1214   39.3558   -4.9595 H           1 MOL       0.0499
     41 H6         36.6405   40.3706   -3.6242 H           1 MOL       0.0499
     42 H7         38.9634   40.2861   -2.8944 H           1 MOL       0.0557
     43 H8         37.8839   38.3588   -6.4956 H           1 MOL       0.0557
     44 H9         41.1484   39.2756   -3.0166 H           1 MOL       0.0599
     45 H10        40.0778   37.3565   -6.6041 H           1 MOL       0.0599
     46 H11        41.7151   37.8056   -4.8672 H           1 MOL       0.0559
     47 H12        33.7024   40.5497   -6.2777 H           1 MOL       0.0496
     48 H13        34.9953   40.5931   -7.4537 H           1 MOL       0.0496
     49 H14        33.0284   42.8863   -7.1736 H           1 MOL       0.0576
     50 H15        34.7827   41.9807   -9.5117 H           1 MOL       0.0454
     51 H16        35.0867   43.3869   -8.5257 H           1 MOL       0.0454
     52 H17        34.8043   43.2158  -11.5724 H           1 MOL       0.0557
     53 H18        32.1608   44.5182   -8.5511 H           1 MOL       0.0557
     54 H19        33.7552   44.7162  -13.1260 H           1 MOL       0.0599
     55 H20        31.0775   45.9586  -10.1380 H           1 MOL       0.0599
     56 H21        31.8712   46.0812  -12.4253 H           1 MOL       0.0559
     57 H22        33.4885   39.7890   -8.8372 H           1 MOL       0.1876
     58 H23        31.6159   39.7166  -10.6423 H           1 MOL       0.0749
     59 H24        33.2430   37.9725  -10.3961 H           1 MOL       0.0467
     60 H25        31.6271   37.3023  -10.4839 H           1 MOL       0.0467
     61 H26        33.0885   35.3082   -9.8468 H           1 MOL       0.0557
     62 H27        32.2221   38.3646   -7.0596 H           1 MOL       0.0557
     63 H28        33.4666   33.7769   -8.0297 H           1 MOL       0.0599
     64 H29        32.6255   36.8296   -5.2662 H           1 MOL       0.0599
     65 H30        33.2132   34.5226   -5.7322 H           1 MOL       0.0559
@<TRIPOS>BOND
     1    24    25   1
     2    25    28   1
     3    25    26   1
     4    26    27  ar
     5    26    35  ar
     6    28    29   1
     7    29    30  ar
     8    29    31  ar
     9    31    33  ar
    10    33    34  ar
    11    32    34  ar
    12    30    32  ar
    13     2     1   1
    14     3     2   1
    15     2     6   1
    16     3     4  ar
    17     3     5  ar
    18    13     3   1
    19     6     7   1
    20     7     8  ar
    21     7     9  ar
    22     8    10  ar
    23     9    11  ar
    24    10    12  ar
    25    11    12  ar
    26    14    13   1
    27    14    15   1
    28    22    14   1
    29    15    16   1
    30    16    17  ar
    31    16    18  ar
    32    17    19  ar
    33    18    20  ar
    34    19    21  ar
    35    20    21  ar
    36    22    23   2
    37    22    24  am
    38     1    36   1
    39     1    37   1
    40     1    38   1
    41     2    39   1
    42     6    40   1
    43     6    41   1
    44     8    42   1
    45     9    43   1
    46    10    44   1
    47    11    45   1
    48    12    46   1
    49    13    47   1
    50    13    48   1
    51    14    49   1
    52    15    50   1
    53    15    51   1
    54    17    52   1
    55    18    53   1
    56    19    54   1
    57    20    55   1
    58    21    56   1
    59    24    57   1
    60    25    58   1
    61    28    59   1
    62    28    60   1
    63    30    61   1
    64    31    62   1
    65    32    63   1
    66    33    64   1
    67    34    65   1
@<TRIPOS>SUBSTRUCTURE
     1  MOL      2

