@<TRIPOS>MOLECULE
1os0_ligand_029
    65    67
SMALL
GAST_HUCK
****
This file was generated by PARSER (from files_GN.cpp)

@<TRIPOS>ATOM
      1 N          33.9624   40.2640   -6.4102 N.4         1 MOL       0.2351
      2 CA         33.9302   41.7024   -6.7075 C.3         1 MOL       0.0466
      3 P          34.7881   42.0225   -8.1133 P.3         1 MOL       0.0403
      4 O1P        35.7381   43.0737   -7.8482 O.co2       1 MOL      -0.6153
      5 O2P        35.6416   40.9191   -8.4918 O.co2       1 MOL      -0.6153
      6 CB         34.2849   42.5270   -5.4206 C.3         1 MOL       0.0407
      7 CG         35.4828   42.1245   -4.6120 C.ar        1 MOL      -0.0360
      8 CD1        36.7944   42.2533   -5.1265 C.ar        1 MOL      -0.0601
      9 CD2        35.3327   41.6762   -3.2692 C.ar        1 MOL      -0.0601
     10 CE1        37.9196   41.9626   -4.3290 C.ar        1 MOL      -0.0686
     11 CE2        36.4584   41.3815   -2.4723 C.ar        1 MOL      -0.0686
     12 CZ         37.7542   41.5346   -2.9996 C.ar        1 MOL      -0.0687
     13 CM         33.9542   42.5355   -9.4874 C.3         1 MOL       0.0402
     14 CA         32.4598   42.1214   -9.7289 C.3         1 MOL       0.0742
     15 CB         31.8985   42.6022  -11.1134 C.3         1 MOL       0.0021
     16 CG         32.2928   43.9888  -11.4748 C.ar        1 MOL      -0.0405
     17 CD1        33.6026   44.2535  -11.9447 C.ar        1 MOL      -0.0602
     18 CD2        31.4007   45.0682  -11.2869 C.ar        1 MOL      -0.0602
     19 CE1        34.0045   45.5710  -12.2311 C.ar        1 MOL      -0.0686
     20 CE2        31.7988   46.3824  -11.5934 C.ar        1 MOL      -0.0686
     21 CZ         33.1021   46.6372  -12.0610 C.ar        1 MOL      -0.0687
     22 C          32.2320   40.6809   -9.5912 C.2         1 MOL       0.1844
     23 O          31.4259   40.3016   -8.7476 O.2         1 MOL      -0.3964
     24 N          32.8339   39.8067  -10.3940 N.am        1 MOL      -0.2692
     25 CA         32.6755   38.3731  -10.3791 C.3         1 MOL       0.1038
     26 C          33.9991   37.7237  -10.5321 C.2         1 MOL       0.0621
     27 O          35.1174   38.4278  -10.8382 O.co2       1 MOL      -0.5664
     28 CB         31.6717   37.8944  -11.4819 C.3         1 MOL       0.0159
     29 CG         30.5302   38.8275  -11.6950 C.ar        1 MOL      -0.0392
     30 CD1        29.6467   39.1422  -10.6270 C.ar        1 MOL      -0.0602
     31 CD2        30.3379   39.4678  -12.9423 C.ar        1 MOL      -0.0602
     32 CE1        28.6340   40.1016  -10.7953 C.ar        1 MOL      -0.0686
     33 CE2        29.3110   40.4147  -13.1156 C.ar        1 MOL      -0.0686
     34 CZ         28.4636   40.7386  -12.0393 C.ar        1 MOL      -0.0687
     35 OXT        34.1161   36.3806  -10.4178 O.co2       1 MOL      -0.5664
     36 H1         33.3832   40.0696   -5.5953 H           1 MOL       0.2014
     37 H2         34.9249   39.9756   -6.2083 H           1 MOL       0.2014
     38 H3         33.6101   39.7255   -7.2018 H           1 MOL       0.2014
     39 H4         32.8904   41.9393   -6.9316 H           1 MOL       0.1089
     40 H5         33.4037   42.4600   -4.7800 H           1 MOL       0.0499
     41 H6         34.3780   43.5880   -5.6587 H           1 MOL       0.0499
     42 H7         36.9514   42.5909   -6.0774 H           1 MOL       0.0557
     43 H8         34.3975   41.5767   -2.8532 H           1 MOL       0.0557
     44 H9         38.8584   42.0700   -4.7120 H           1 MOL       0.0599
     45 H10        36.3310   41.0675   -1.5054 H           1 MOL       0.0599
     46 H11        38.5738   41.3376   -2.4146 H           1 MOL       0.0559
     47 H12        34.5355   42.2209  -10.3571 H           1 MOL       0.0496
     48 H13        33.9839   43.6309   -9.4777 H           1 MOL       0.0496
     49 H14        31.8716   42.6473   -8.9654 H           1 MOL       0.0576
     50 H15        30.8071   42.5350  -11.1008 H           1 MOL       0.0454
     51 H16        32.2363   41.9319  -11.9073 H           1 MOL       0.0454
     52 H17        34.2812   43.4937  -12.0641 H           1 MOL       0.0557
     53 H18        30.4546   44.9023  -10.9267 H           1 MOL       0.0557
     54 H19        34.9616   45.7470  -12.5467 H           1 MOL       0.0599
     55 H20        31.1458   47.1603  -11.4585 H           1 MOL       0.0599
     56 H21        33.3941   47.5949  -12.2790 H           1 MOL       0.0559
     57 H22        33.4138   40.1671  -11.0841 H           1 MOL       0.1876
     58 H23        32.2849   38.0396   -9.4121 H           1 MOL       0.0749
     59 H24        31.2628   36.9181  -11.1995 H           1 MOL       0.0467
     60 H25        32.2163   37.7451  -12.4203 H           1 MOL       0.0467
     61 H26        29.7592   38.6929   -9.7163 H           1 MOL       0.0557
     62 H27        30.9566   39.2647  -13.7305 H           1 MOL       0.0557
     63 H28        28.0290   40.3492  -10.0094 H           1 MOL       0.0599
     64 H29        29.1900   40.8765  -14.0166 H           1 MOL       0.0599
     65 H30        27.7284   41.4357  -12.1615 H           1 MOL       0.0559
@<TRIPOS>BOND
     1    24    25   1
     2    25    28   1
     3    25    26   1
     4    26    27  ar
     5    26    35  ar
     6    28    29   1
     7    29    30  ar
     8    29    31  ar
     9    31    33  ar
    10    33    34  ar
    11    32    34  ar
    12    30    32  ar
    13     2     1   1
    14     3     2   1
    15     2     6   1
    16     3     4  ar
    17     3     5  ar
    18    13     3   1
    19     6     7   1
    20     7     8  ar
    21     7     9  ar
    22     8    10  ar
    23     9    11  ar
    24    10    12  ar
    25    11    12  ar
    26    14    13   1
    27    14    15   1
    28    22    14   1
    29    15    16   1
    30    16    17  ar
    31    16    18  ar
    32    17    19  ar
    33    18    20  ar
    34    19    21  ar
    35    20    21  ar
    36    22    23   2
    37    22    24  am
    38     1    36   1
    39     1    37   1
    40     1    38   1
    41     2    39   1
    42     6    40   1
    43     6    41   1
    44     8    42   1
    45     9    43   1
    46    10    44   1
    47    11    45   1
    48    12    46   1
    49    13    47   1
    50    13    48   1
    51    14    49   1
    52    15    50   1
    53    15    51   1
    54    17    52   1
    55    18    53   1
    56    19    54   1
    57    20    55   1
    58    21    56   1
    59    24    57   1
    60    25    58   1
    61    28    59   1
    62    28    60   1
    63    30    61   1
    64    31    62   1
    65    32    63   1
    66    33    64   1
    67    34    65   1
@<TRIPOS>SUBSTRUCTURE
     1  MOL      2

