@<TRIPOS>MOLECULE
1os0_ligand_046
    65    67
SMALL
GAST_HUCK
****
This file was generated by PARSER (from files_GN.cpp)

@<TRIPOS>ATOM
      1 N          33.7915   42.6295   -6.0060 N.4         1 MOL       0.2351
      2 CA         34.4267   42.3121   -7.2997 C.3         1 MOL       0.0466
      3 P          33.2752   42.2140   -8.5193 P.3         1 MOL       0.0403
      4 O1P        32.9933   40.8541   -8.9052 O.co2       1 MOL      -0.6153
      5 O2P        32.0186   42.7169   -8.0239 O.co2       1 MOL      -0.6153
      6 CB         35.3137   41.0359   -7.1553 C.3         1 MOL       0.0407
      7 CG         36.2564   41.0875   -6.0007 C.ar        1 MOL      -0.0360
      8 CD1        37.1348   42.1843   -5.8363 C.ar        1 MOL      -0.0601
      9 CD2        36.2769   40.0593   -5.0261 C.ar        1 MOL      -0.0601
     10 CE1        38.0052   42.2540   -4.7338 C.ar        1 MOL      -0.0686
     11 CE2        37.1464   40.1295   -3.9213 C.ar        1 MOL      -0.0686
     12 CZ         38.0125   41.2263   -3.7752 C.ar        1 MOL      -0.0687
     13 CM         33.6593   43.1023   -9.8873 C.3         1 MOL       0.0402
     14 CA         32.4585   43.3904  -10.8495 C.3         1 MOL       0.0742
     15 CB         32.7841   44.5293  -11.8698 C.3         1 MOL       0.0021
     16 CG         31.7123   44.8198  -12.8719 C.ar        1 MOL      -0.0405
     17 CD1        30.3472   44.8185  -12.4953 C.ar        1 MOL      -0.0602
     18 CD2        32.0360   45.1202  -14.2185 C.ar        1 MOL      -0.0602
     19 CE1        29.3363   45.0926  -13.4320 C.ar        1 MOL      -0.0686
     20 CE2        31.0252   45.4112  -15.1536 C.ar        1 MOL      -0.0686
     21 CZ         29.6762   45.3995  -14.7599 C.ar        1 MOL      -0.0687
     22 C          31.9762   42.1775  -11.5122 C.2         1 MOL       0.1844
     23 O          32.6797   41.6438  -12.3596 O.2         1 MOL      -0.3964
     24 N          30.7719   41.6952  -11.2175 N.am        1 MOL      -0.2692
     25 CA         30.1250   40.5615  -11.8178 C.3         1 MOL       0.1038
     26 C          28.6820   40.6577  -11.4968 C.2         1 MOL       0.0621
     27 O          28.2170   40.2760  -10.2858 O.co2       1 MOL      -0.5664
     28 CB         30.7276   39.2037  -11.3326 C.3         1 MOL       0.0159
     29 CG         30.2321   38.0275  -12.1044 C.ar        1 MOL      -0.0392
     30 CD1        30.8218   37.6873  -13.3449 C.ar        1 MOL      -0.0602
     31 CD2        29.1538   37.2389  -11.6319 C.ar        1 MOL      -0.0602
     32 CE1        30.3513   36.5910  -14.0914 C.ar        1 MOL      -0.0686
     33 CE2        28.6826   36.1405  -12.3772 C.ar        1 MOL      -0.0686
     34 CZ         29.2820   35.8164  -13.6073 C.ar        1 MOL      -0.0687
     35 OXT        27.7996   41.1320  -12.4078 O.co2       1 MOL      -0.5664
     36 H1         34.5160   42.8000   -5.3060 H           1 MOL       0.2014
     37 H2         33.2010   41.8559   -5.6938 H           1 MOL       0.2014
     38 H3         33.2235   43.4739   -6.0963 H           1 MOL       0.2014
     39 H4         35.0736   43.1604   -7.5341 H           1 MOL       0.1089
     40 H5         35.8962   40.8901   -8.0692 H           1 MOL       0.0499
     41 H6         34.6590   40.1658   -7.0473 H           1 MOL       0.0499
     42 H7         37.1515   42.9409   -6.5219 H           1 MOL       0.0557
     43 H8         35.6517   39.2541   -5.1088 H           1 MOL       0.0557
     44 H9         38.6330   43.0534   -4.6356 H           1 MOL       0.0599
     45 H10        37.1463   39.3830   -3.2222 H           1 MOL       0.0599
     46 H11        38.6436   41.2761   -2.9728 H           1 MOL       0.0559
     47 H12        34.4635   42.5931  -10.4240 H           1 MOL       0.0496
     48 H13        34.0603   44.0599   -9.5446 H           1 MOL       0.0496
     49 H14        31.6571   43.7921  -10.2225 H           1 MOL       0.0576
     50 H15        33.7262   44.2862  -12.3699 H           1 MOL       0.0454
     51 H16        32.9535   45.4521  -11.3079 H           1 MOL       0.0454
     52 H17        30.0727   44.6037  -11.5363 H           1 MOL       0.0557
     53 H18        33.0128   45.1414  -14.5248 H           1 MOL       0.0557
     54 H19        28.3555   45.0818  -13.1402 H           1 MOL       0.0599
     55 H20        31.2722   45.6347  -16.1177 H           1 MOL       0.0599
     56 H21        28.9430   45.6222  -15.4350 H           1 MOL       0.0559
     57 H22        30.2456   42.1878  -10.5644 H           1 MOL       0.1876
     58 H23        30.2422   40.6343  -12.9055 H           1 MOL       0.0749
     59 H24        30.5258   39.0592  -10.2674 H           1 MOL       0.0467
     60 H25        31.8159   39.2453  -11.4230 H           1 MOL       0.0467
     61 H26        31.5999   38.2366  -13.7154 H           1 MOL       0.0557
     62 H27        28.7039   37.4578  -10.7393 H           1 MOL       0.0557
     63 H28        30.7871   36.3577  -14.9882 H           1 MOL       0.0599
     64 H29        27.9047   35.5767  -12.0264 H           1 MOL       0.0599
     65 H30        28.9431   35.0174  -14.1491 H           1 MOL       0.0559
@<TRIPOS>BOND
     1    24    25   1
     2    25    28   1
     3    25    26   1
     4    26    27  ar
     5    26    35  ar
     6    28    29   1
     7    29    30  ar
     8    29    31  ar
     9    31    33  ar
    10    33    34  ar
    11    32    34  ar
    12    30    32  ar
    13     2     1   1
    14     3     2   1
    15     2     6   1
    16     3     4  ar
    17     3     5  ar
    18    13     3   1
    19     6     7   1
    20     7     8  ar
    21     7     9  ar
    22     8    10  ar
    23     9    11  ar
    24    10    12  ar
    25    11    12  ar
    26    14    13   1
    27    14    15   1
    28    22    14   1
    29    15    16   1
    30    16    17  ar
    31    16    18  ar
    32    17    19  ar
    33    18    20  ar
    34    19    21  ar
    35    20    21  ar
    36    22    23   2
    37    22    24  am
    38     1    36   1
    39     1    37   1
    40     1    38   1
    41     2    39   1
    42     6    40   1
    43     6    41   1
    44     8    42   1
    45     9    43   1
    46    10    44   1
    47    11    45   1
    48    12    46   1
    49    13    47   1
    50    13    48   1
    51    14    49   1
    52    15    50   1
    53    15    51   1
    54    17    52   1
    55    18    53   1
    56    19    54   1
    57    20    55   1
    58    21    56   1
    59    24    57   1
    60    25    58   1
    61    28    59   1
    62    28    60   1
    63    30    61   1
    64    31    62   1
    65    32    63   1
    66    33    64   1
    67    34    65   1
@<TRIPOS>SUBSTRUCTURE
     1  MOL      2

