@<TRIPOS>MOLECULE
1os0_ligand_075
    65    67
SMALL
GAST_HUCK
****
This file was generated by PARSER (from files_GN.cpp)

@<TRIPOS>ATOM
      1 N          32.3452   40.2226   -9.7988 N.4         1 MOL       0.2351
      2 CA         33.1158   41.4546  -10.0545 C.3         1 MOL       0.0466
      3 P          33.8739   41.9301   -8.6299 P.3         1 MOL       0.0403
      4 O1P        34.2316   43.3249   -8.6724 O.co2       1 MOL      -0.6153
      5 O2P        32.9208   41.9060   -7.5461 O.co2       1 MOL      -0.6153
      6 CB         32.1827   42.5262  -10.7181 C.3         1 MOL       0.0407
      7 CG         32.8756   43.3467  -11.7573 C.ar        1 MOL      -0.0360
      8 CD1        33.6172   44.5021  -11.4116 C.ar        1 MOL      -0.0601
      9 CD2        32.8383   42.9625  -13.1197 C.ar        1 MOL      -0.0601
     10 CE1        34.3449   45.2163  -12.3806 C.ar        1 MOL      -0.0686
     11 CE2        33.5371   43.6975  -14.0977 C.ar        1 MOL      -0.0686
     12 CZ         34.2984   44.8177  -13.7268 C.ar        1 MOL      -0.0687
     13 CM         35.2997   41.1263   -8.2520 C.3         1 MOL       0.0402
     14 CA         35.2301   40.0553   -7.0928 C.3         1 MOL       0.0742
     15 CB         35.6690   38.6304   -7.6215 C.3         1 MOL       0.0021
     16 CG         34.8835   37.4509   -7.1377 C.ar        1 MOL      -0.0405
     17 CD1        33.4723   37.5291   -7.0330 C.ar        1 MOL      -0.0602
     18 CD2        35.4967   36.1855   -6.9515 C.ar        1 MOL      -0.0602
     19 CE1        32.6989   36.4006   -6.7234 C.ar        1 MOL      -0.0686
     20 CE2        34.7187   35.0488   -6.6555 C.ar        1 MOL      -0.0686
     21 CZ         33.3201   35.1546   -6.5458 C.ar        1 MOL      -0.0687
     22 C          35.9115   40.5106   -5.8659 C.2         1 MOL       0.1844
     23 O          36.7661   39.8212   -5.3318 O.2         1 MOL      -0.3964
     24 N          35.5767   41.6957   -5.3470 N.am        1 MOL      -0.2692
     25 CA         36.1239   42.3794   -4.2050 C.3         1 MOL       0.1038
     26 C          37.6006   42.5380   -4.3017 C.2         1 MOL       0.0621
     27 O          38.1382   43.1789   -5.3596 O.co2       1 MOL      -0.5664
     28 CB         35.5458   41.7750   -2.8887 C.3         1 MOL       0.0159
     29 CG         36.0963   42.2946   -1.6003 C.ar        1 MOL      -0.0392
     30 CD1        36.6392   41.3952   -0.6500 C.ar        1 MOL      -0.0602
     31 CD2        36.0932   43.6771   -1.2893 C.ar        1 MOL      -0.0602
     32 CE1        37.1914   41.8585    0.5564 C.ar        1 MOL      -0.0686
     33 CE2        36.6507   44.1435   -0.0813 C.ar        1 MOL      -0.0686
     34 CZ         37.2069   43.2348    0.8378 C.ar        1 MOL      -0.0687
     35 OXT        38.4553   42.1479   -3.3226 O.co2       1 MOL      -0.5664
     36 H1         31.9745   39.8630  -10.6823 H           1 MOL       0.2014
     37 H2         31.5650   40.4261   -9.1697 H           1 MOL       0.2014
     38 H3         32.9454   39.5100   -9.3778 H           1 MOL       0.2014
     39 H4         33.8931   41.1725  -10.7721 H           1 MOL       0.1089
     40 H5         31.7341   43.1763   -9.9623 H           1 MOL       0.0499
     41 H6         31.3385   42.0224  -11.2001 H           1 MOL       0.0499
     42 H7         33.6360   44.8421  -10.4488 H           1 MOL       0.0557
     43 H8         32.3019   42.1417  -13.4105 H           1 MOL       0.0557
     44 H9         34.9021   46.0258  -12.0954 H           1 MOL       0.0599
     45 H10        33.4997   43.4108  -15.0752 H           1 MOL       0.0599
     46 H11        34.8174   45.3448  -14.4289 H           1 MOL       0.0559
     47 H12        36.0589   41.8735   -7.9951 H           1 MOL       0.0496
     48 H13        35.6574   40.6891   -9.1878 H           1 MOL       0.0496
     49 H14        34.1894   39.9781   -6.7861 H           1 MOL       0.0576
     50 H15        36.7434   38.4930   -7.4329 H           1 MOL       0.0454
     51 H16        35.5585   38.5764   -8.7107 H           1 MOL       0.0454
     52 H17        32.9793   38.4109   -7.2074 H           1 MOL       0.0557
     53 H18        36.5101   36.0681   -7.0617 H           1 MOL       0.0557
     54 H19        31.6839   36.5023   -6.6582 H           1 MOL       0.0599
     55 H20        35.1572   34.1390   -6.5316 H           1 MOL       0.0599
     56 H21        32.7452   34.3423   -6.3481 H           1 MOL       0.0559
     57 H22        34.8850   42.1801   -5.8234 H           1 MOL       0.1876
     58 H23        35.7268   43.3941   -4.2704 H           1 MOL       0.0749
     59 H24        35.6810   40.6935   -2.9369 H           1 MOL       0.0467
     60 H25        34.4663   41.9494   -2.8736 H           1 MOL       0.0467
     61 H26        36.6398   40.3887   -0.8299 H           1 MOL       0.0557
     62 H27        35.7009   44.3574   -1.9448 H           1 MOL       0.0557
     63 H28        37.5819   41.1939    1.2278 H           1 MOL       0.0599
     64 H29        36.6528   45.1435    0.1315 H           1 MOL       0.0599
     65 H30        37.6174   43.5713    1.7122 H           1 MOL       0.0559
@<TRIPOS>BOND
     1    24    25   1
     2    25    28   1
     3    25    26   1
     4    26    27  ar
     5    26    35  ar
     6    28    29   1
     7    29    30  ar
     8    29    31  ar
     9    31    33  ar
    10    33    34  ar
    11    32    34  ar
    12    30    32  ar
    13     2     1   1
    14     3     2   1
    15     2     6   1
    16     3     4  ar
    17     3     5  ar
    18    13     3   1
    19     6     7   1
    20     7     8  ar
    21     7     9  ar
    22     8    10  ar
    23     9    11  ar
    24    10    12  ar
    25    11    12  ar
    26    14    13   1
    27    14    15   1
    28    22    14   1
    29    15    16   1
    30    16    17  ar
    31    16    18  ar
    32    17    19  ar
    33    18    20  ar
    34    19    21  ar
    35    20    21  ar
    36    22    23   2
    37    22    24  am
    38     1    36   1
    39     1    37   1
    40     1    38   1
    41     2    39   1
    42     6    40   1
    43     6    41   1
    44     8    42   1
    45     9    43   1
    46    10    44   1
    47    11    45   1
    48    12    46   1
    49    13    47   1
    50    13    48   1
    51    14    49   1
    52    15    50   1
    53    15    51   1
    54    17    52   1
    55    18    53   1
    56    19    54   1
    57    20    55   1
    58    21    56   1
    59    24    57   1
    60    25    58   1
    61    28    59   1
    62    28    60   1
    63    30    61   1
    64    31    62   1
    65    32    63   1
    66    33    64   1
    67    34    65   1
@<TRIPOS>SUBSTRUCTURE
     1  MOL      2

