@<TRIPOS>MOLECULE
1os0_ligand_095
    65    67
SMALL
GAST_HUCK
****
This file was generated by PARSER (from files_GN.cpp)

@<TRIPOS>ATOM
      1 N          35.8611   40.4073   -8.2018 N.4         1 MOL       0.2351
      2 CA         35.3278   39.4336   -9.1708 C.3         1 MOL       0.0466
      3 P          34.1463   38.5100   -8.4106 P.3         1 MOL       0.0403
      4 O1P        33.9718   37.2169   -9.0189 O.co2       1 MOL      -0.6153
      5 O2P        34.5978   38.1726   -7.0803 O.co2       1 MOL      -0.6153
      6 CB         36.5319   38.6615   -9.8052 C.3         1 MOL       0.0407
      7 CG         36.1990   37.6982  -10.8988 C.ar        1 MOL      -0.0360
      8 CD1        35.4711   38.1167  -12.0412 C.ar        1 MOL      -0.0601
      9 CD2        36.5797   36.3386  -10.8123 C.ar        1 MOL      -0.0601
     10 CE1        35.0893   37.1959  -13.0357 C.ar        1 MOL      -0.0686
     11 CE2        36.2165   35.4201  -11.8143 C.ar        1 MOL      -0.0686
     12 CZ         35.4481   35.8459  -12.9170 C.ar        1 MOL      -0.0687
     13 CM         32.6435   39.2378   -8.2631 C.3         1 MOL       0.0402
     14 CA         31.7298   39.2479   -9.5458 C.3         1 MOL       0.0742
     15 CB         30.2104   39.2690   -9.1653 C.3         1 MOL       0.0021
     16 CG         29.2279   39.0426  -10.2684 C.ar        1 MOL      -0.0405
     17 CD1        28.0905   39.8740  -10.4251 C.ar        1 MOL      -0.0602
     18 CD2        29.3248   37.8980  -11.0988 C.ar        1 MOL      -0.0602
     19 CE1        27.0941   39.5728  -11.3754 C.ar        1 MOL      -0.0686
     20 CE2        28.3450   37.6058  -12.0607 C.ar        1 MOL      -0.0686
     21 CZ         27.2193   38.4382  -12.1909 C.ar        1 MOL      -0.0687
     22 C          32.0909   40.3185  -10.4879 C.2         1 MOL       0.1844
     23 O          32.6513   40.0044  -11.5292 O.2         1 MOL      -0.3964
     24 N          31.8852   41.6050  -10.1893 N.am        1 MOL      -0.2692
     25 CA         32.3477   42.7635  -10.9194 C.3         1 MOL       0.1038
     26 C          32.1053   44.0063  -10.1430 C.2         1 MOL       0.0621
     27 O          32.5061   45.2077  -10.6114 O.co2       1 MOL      -0.5664
     28 CB         31.7356   42.8560  -12.3617 C.3         1 MOL       0.0159
     29 CG         32.3113   43.8663  -13.3045 C.ar        1 MOL      -0.0392
     30 CD1        31.4558   44.6222  -14.1419 C.ar        1 MOL      -0.0602
     31 CD2        33.7136   44.0103  -13.4853 C.ar        1 MOL      -0.0602
     32 CE1        31.9778   45.5186  -15.0932 C.ar        1 MOL      -0.0686
     33 CE2        34.2335   44.9228  -14.4186 C.ar        1 MOL      -0.0686
     34 CZ         33.3669   45.6801  -15.2215 C.ar        1 MOL      -0.0687
     35 OXT        31.5588   43.9870   -8.9072 O.co2       1 MOL      -0.5664
     36 H1         36.5141   41.0370   -8.6721 H           1 MOL       0.2014
     37 H2         36.3524   39.9087   -7.4565 H           1 MOL       0.2014
     38 H3         35.0971   40.9556   -7.8003 H           1 MOL       0.2014
     39 H4         34.8511   40.0155   -9.9564 H           1 MOL       0.1089
     40 H5         37.0693   38.1516   -9.0006 H           1 MOL       0.0499
     41 H6         37.2247   39.3922  -10.2269 H           1 MOL       0.0499
     42 H7         35.2089   39.0971  -12.1574 H           1 MOL       0.0557
     43 H8         37.1369   36.0070  -10.0214 H           1 MOL       0.0557
     44 H9         34.5386   37.5122  -13.8407 H           1 MOL       0.0599
     45 H10        36.4938   34.4423  -11.7401 H           1 MOL       0.0599
     46 H11        35.1562   35.1724  -13.6289 H           1 MOL       0.0559
     47 H12        32.7782   40.2566   -7.8921 H           1 MOL       0.0496
     48 H13        32.1345   38.6903   -7.4677 H           1 MOL       0.0496
     49 H14        31.9040   38.2873  -10.0375 H           1 MOL       0.0576
     50 H15        29.9915   40.2043   -8.6460 H           1 MOL       0.0454
     51 H16        30.0242   38.4692   -8.4460 H           1 MOL       0.0454
     52 H17        27.9668   40.6901   -9.8237 H           1 MOL       0.0557
     53 H18        30.1100   37.2473  -11.0018 H           1 MOL       0.0557
     54 H19        26.2628   40.1648  -11.4547 H           1 MOL       0.0599
     55 H20        28.4346   36.7674  -12.6433 H           1 MOL       0.0599
     56 H21        26.4924   38.2044  -12.8650 H           1 MOL       0.0559
     57 H22        31.4417   41.7752   -9.3475 H           1 MOL       0.1876
     58 H23        33.4283   42.6543  -10.9909 H           1 MOL       0.0749
     59 H24        30.6546   43.0127  -12.2545 H           1 MOL       0.0467
     60 H25        31.8546   41.8984  -12.8684 H           1 MOL       0.0467
     61 H26        30.4408   44.5043  -14.0854 H           1 MOL       0.0557
     62 H27        34.3758   43.4558  -12.9424 H           1 MOL       0.0557
     63 H28        31.3464   46.0528  -15.6908 H           1 MOL       0.0599
     64 H29        35.2450   45.0318  -14.5170 H           1 MOL       0.0599
     65 H30        33.7484   46.3459  -15.8957 H           1 MOL       0.0559
@<TRIPOS>BOND
     1    24    25   1
     2    25    28   1
     3    25    26   1
     4    26    27  ar
     5    26    35  ar
     6    28    29   1
     7    29    30  ar
     8    29    31  ar
     9    31    33  ar
    10    33    34  ar
    11    32    34  ar
    12    30    32  ar
    13     2     1   1
    14     3     2   1
    15     2     6   1
    16     3     4  ar
    17     3     5  ar
    18    13     3   1
    19     6     7   1
    20     7     8  ar
    21     7     9  ar
    22     8    10  ar
    23     9    11  ar
    24    10    12  ar
    25    11    12  ar
    26    14    13   1
    27    14    15   1
    28    22    14   1
    29    15    16   1
    30    16    17  ar
    31    16    18  ar
    32    17    19  ar
    33    18    20  ar
    34    19    21  ar
    35    20    21  ar
    36    22    23   2
    37    22    24  am
    38     1    36   1
    39     1    37   1
    40     1    38   1
    41     2    39   1
    42     6    40   1
    43     6    41   1
    44     8    42   1
    45     9    43   1
    46    10    44   1
    47    11    45   1
    48    12    46   1
    49    13    47   1
    50    13    48   1
    51    14    49   1
    52    15    50   1
    53    15    51   1
    54    17    52   1
    55    18    53   1
    56    19    54   1
    57    20    55   1
    58    21    56   1
    59    24    57   1
    60    25    58   1
    61    28    59   1
    62    28    60   1
    63    30    61   1
    64    31    62   1
    65    32    63   1
    66    33    64   1
    67    34    65   1
@<TRIPOS>SUBSTRUCTURE
     1  MOL      2

