@<TRIPOS>MOLECULE
1os0_ligand_031
    65    67
SMALL
GAST_HUCK
****
This file was generated by PARSER (from files_GN.cpp)

@<TRIPOS>ATOM
      1 N          35.7252   40.6805   -8.4867 N.4         1 MOL       0.2351
      2 CA         34.4092   41.1152   -7.9763 C.3         1 MOL       0.0466
      3 P          34.0821   42.7204   -8.3490 P.3         1 MOL       0.0403
      4 O1P        32.7699   43.0303   -7.8372 O.co2       1 MOL      -0.6153
      5 O2P        35.0194   43.5553   -7.6402 O.co2       1 MOL      -0.6153
      6 CB         34.2577   40.7092   -6.4720 C.3         1 MOL       0.0407
      7 CG         35.4311   41.0007   -5.5929 C.ar        1 MOL      -0.0360
      8 CD1        36.3938   39.9972   -5.3200 C.ar        1 MOL      -0.0601
      9 CD2        35.6144   42.2795   -5.0147 C.ar        1 MOL      -0.0601
     10 CE1        37.5163   40.2710   -4.5170 C.ar        1 MOL      -0.0686
     11 CE2        36.7468   42.5615   -4.2277 C.ar        1 MOL      -0.0686
     12 CZ         37.6982   41.5568   -3.9793 C.ar        1 MOL      -0.0687
     13 CM         34.2022   43.0780   -9.9897 C.3         1 MOL       0.0402
     14 CA         32.9630   43.7181  -10.7536 C.3         1 MOL       0.0742
     15 CB         33.2855   45.1092  -11.4435 C.3         1 MOL       0.0021
     16 CG         32.8406   45.3045  -12.8558 C.ar        1 MOL      -0.0405
     17 CD1        31.4766   45.5232  -13.1630 C.ar        1 MOL      -0.0602
     18 CD2        33.7665   45.1985  -13.9217 C.ar        1 MOL      -0.0602
     19 CE1        31.0478   45.6036  -14.5015 C.ar        1 MOL      -0.0686
     20 CE2        33.3399   45.2833  -15.2587 C.ar        1 MOL      -0.0686
     21 CZ         31.9774   45.4744  -15.5492 C.ar        1 MOL      -0.0687
     22 C          32.3473   42.7417  -11.6680 C.2         1 MOL       0.1844
     23 O          33.0462   42.2590  -12.5519 O.2         1 MOL      -0.3964
     24 N          31.0425   42.4793  -11.6222 N.am        1 MOL      -0.2692
     25 CA         30.3003   41.6056  -12.4939 C.3         1 MOL       0.1038
     26 C          29.3766   42.3995  -13.3345 C.2         1 MOL       0.0621
     27 O          28.7940   43.5246  -12.8599 O.co2       1 MOL      -0.5664
     28 CB         29.5240   40.5431  -11.6618 C.3         1 MOL       0.0159
     29 CG         30.4142   39.6176  -10.9066 C.ar        1 MOL      -0.0392
     30 CD1        31.2461   38.7044  -11.5985 C.ar        1 MOL      -0.0602
     31 CD2        30.4358   39.6120   -9.4911 C.ar        1 MOL      -0.0602
     32 CE1        32.0858   37.8204  -10.8965 C.ar        1 MOL      -0.0686
     33 CE2        31.2684   38.7210   -8.7879 C.ar        1 MOL      -0.0686
     34 CZ         32.0969   37.8280   -9.4905 C.ar        1 MOL      -0.0687
     35 OXT        28.7690   41.7958  -14.3817 O.co2       1 MOL      -0.5664
     36 H1         35.8494   39.6857   -8.2847 H           1 MOL       0.2014
     37 H2         36.4836   41.2028   -8.0376 H           1 MOL       0.2014
     38 H3         35.7764   40.8146   -9.4976 H           1 MOL       0.2014
     39 H4         33.6688   40.5379   -8.5344 H           1 MOL       0.1089
     40 H5         34.0667   39.6312   -6.4452 H           1 MOL       0.0499
     41 H6         33.3623   41.1671   -6.0459 H           1 MOL       0.0499
     42 H7         36.2876   39.0582   -5.7111 H           1 MOL       0.0557
     43 H8         34.9255   43.0190   -5.1664 H           1 MOL       0.0557
     44 H9         38.2024   39.5368   -4.3276 H           1 MOL       0.0599
     45 H10        36.8768   43.4960   -3.8335 H           1 MOL       0.0599
     46 H11        38.5178   41.7585   -3.4029 H           1 MOL       0.0559
     47 H12        34.5041   42.1550  -10.4869 H           1 MOL       0.0496
     48 H13        35.0748   43.7251  -10.0900 H           1 MOL       0.0496
     49 H14        32.1967   43.9602  -10.0109 H           1 MOL       0.0576
     50 H15        34.3569   45.3153  -11.4055 H           1 MOL       0.0454
     51 H16        32.8344   45.9103  -10.8505 H           1 MOL       0.0454
     52 H17        30.7865   45.6164  -12.4133 H           1 MOL       0.0557
     53 H18        34.7592   45.0441  -13.7322 H           1 MOL       0.0557
     54 H19        30.0596   45.7544  -14.7144 H           1 MOL       0.0599
     55 H20        34.0192   45.1921  -16.0183 H           1 MOL       0.0599
     56 H21        31.6644   45.5211  -16.5210 H           1 MOL       0.0559
     57 H22        30.5226   42.9373  -10.9408 H           1 MOL       0.1876
     58 H23        30.9663   41.0806  -13.1853 H           1 MOL       0.0749
     59 H24        28.9027   39.9372  -12.3280 H           1 MOL       0.0467
     60 H25        28.8414   41.0637  -10.9829 H           1 MOL       0.0467
     61 H26        31.2423   38.6727  -12.6207 H           1 MOL       0.0557
     62 H27        29.8441   40.2555   -8.9613 H           1 MOL       0.0557
     63 H28        32.6837   37.1674  -11.4091 H           1 MOL       0.0599
     64 H29        31.2724   38.7219   -7.7651 H           1 MOL       0.0599
     65 H30        32.7039   37.1820   -8.9807 H           1 MOL       0.0559
@<TRIPOS>BOND
     1    24    25   1
     2    25    28   1
     3    25    26   1
     4    26    27  ar
     5    26    35  ar
     6    28    29   1
     7    29    30  ar
     8    29    31  ar
     9    31    33  ar
    10    33    34  ar
    11    32    34  ar
    12    30    32  ar
    13     2     1   1
    14     3     2   1
    15     2     6   1
    16     3     4  ar
    17     3     5  ar
    18    13     3   1
    19     6     7   1
    20     7     8  ar
    21     7     9  ar
    22     8    10  ar
    23     9    11  ar
    24    10    12  ar
    25    11    12  ar
    26    14    13   1
    27    14    15   1
    28    22    14   1
    29    15    16   1
    30    16    17  ar
    31    16    18  ar
    32    17    19  ar
    33    18    20  ar
    34    19    21  ar
    35    20    21  ar
    36    22    23   2
    37    22    24  am
    38     1    36   1
    39     1    37   1
    40     1    38   1
    41     2    39   1
    42     6    40   1
    43     6    41   1
    44     8    42   1
    45     9    43   1
    46    10    44   1
    47    11    45   1
    48    12    46   1
    49    13    47   1
    50    13    48   1
    51    14    49   1
    52    15    50   1
    53    15    51   1
    54    17    52   1
    55    18    53   1
    56    19    54   1
    57    20    55   1
    58    21    56   1
    59    24    57   1
    60    25    58   1
    61    28    59   1
    62    28    60   1
    63    30    61   1
    64    31    62   1
    65    32    63   1
    66    33    64   1
    67    34    65   1
@<TRIPOS>SUBSTRUCTURE
     1  MOL      2

