@<TRIPOS>MOLECULE
1os0_ligand_015
    65    67
SMALL
GAST_HUCK
****
This file was generated by PARSER (from files_GN.cpp)

@<TRIPOS>ATOM
      1 N          35.4723   42.9911   -1.9008 N.4         1 MOL       0.2351
      2 CA         36.8575   42.9382   -2.4033 C.3         1 MOL       0.0466
      3 P          36.9323   42.3883   -3.9967 P.3         1 MOL       0.0403
      4 O1P        37.9516   43.1557   -4.6685 O.co2       1 MOL      -0.6153
      5 O2P        37.4816   41.0589   -4.0896 O.co2       1 MOL      -0.6153
      6 CB         37.7902   42.1895   -1.3884 C.3         1 MOL       0.0407
      7 CG         37.5797   40.7136   -1.2635 C.ar        1 MOL      -0.0360
      8 CD1        36.5275   40.1906   -0.4739 C.ar        1 MOL      -0.0601
      9 CD2        38.4174   39.7977   -1.9440 C.ar        1 MOL      -0.0601
     10 CE1        36.2793   38.8053   -0.4184 C.ar        1 MOL      -0.0686
     11 CE2        38.1863   38.4120   -1.8739 C.ar        1 MOL      -0.0686
     12 CZ         37.1049   37.9167   -1.1252 C.ar        1 MOL      -0.0687
     13 CM         35.5452   42.4829   -4.9347 C.3         1 MOL       0.0402
     14 CA         35.5688   41.6664   -6.2849 C.3         1 MOL       0.0742
     15 CB         35.1930   40.1520   -6.0752 C.3         1 MOL       0.0021
     16 CG         35.2321   39.2244   -7.2468 C.ar        1 MOL      -0.0405
     17 CD1        34.5585   37.9811   -7.1523 C.ar        1 MOL      -0.0602
     18 CD2        35.9297   39.5093   -8.4461 C.ar        1 MOL      -0.0602
     19 CE1        34.5313   37.0831   -8.2351 C.ar        1 MOL      -0.0686
     20 CE2        35.9202   38.6045   -9.5240 C.ar        1 MOL      -0.0686
     21 CZ         35.2060   37.3988   -9.4260 C.ar        1 MOL      -0.0687
     22 C          34.7692   42.3329   -7.3247 C.2         1 MOL       0.1844
     23 O          35.2242   43.3690   -7.7940 O.2         1 MOL      -0.3964
     24 N          33.6240   41.8314   -7.7894 N.am        1 MOL      -0.2692
     25 CA         32.8499   42.2646   -8.9279 C.3         1 MOL       0.1038
     26 C          33.4016   41.7004  -10.1826 C.2         1 MOL       0.0621
     27 O          32.8386   42.0368  -11.3667 O.co2       1 MOL      -0.5664
     28 CB         32.5053   43.7991   -8.9421 C.3         1 MOL       0.0159
     29 CG         32.7012   44.5708  -10.2104 C.ar        1 MOL      -0.0392
     30 CD1        33.9712   44.6083  -10.8351 C.ar        1 MOL      -0.0602
     31 CD2        31.6502   45.3301  -10.7847 C.ar        1 MOL      -0.0602
     32 CE1        34.1780   45.3442  -12.0161 C.ar        1 MOL      -0.0686
     33 CE2        31.8538   46.0672  -11.9676 C.ar        1 MOL      -0.0686
     34 CZ         33.1143   46.0634  -12.5906 C.ar        1 MOL      -0.0687
     35 OXT        34.6160   41.1118  -10.2199 O.co2       1 MOL      -0.5664
     36 H1         35.4615   43.4178   -0.9709 H           1 MOL       0.2014
     37 H2         35.0884   42.0460   -1.8403 H           1 MOL       0.2014
     38 H3         34.8887   43.5515   -2.5282 H           1 MOL       0.2014
     39 H4         37.1830   43.9845   -2.4133 H           1 MOL       0.1089
     40 H5         37.6595   42.6345   -0.4003 H           1 MOL       0.0499
     41 H6         38.8271   42.3959   -1.6688 H           1 MOL       0.0499
     42 H7         35.9194   40.8199    0.0588 H           1 MOL       0.0557
     43 H8         39.1951   40.1350   -2.5138 H           1 MOL       0.0557
     44 H9         35.4981   38.4457    0.1337 H           1 MOL       0.0599
     45 H10        38.7937   37.7617   -2.3872 H           1 MOL       0.0599
     46 H11        36.9221   36.9135   -1.0986 H           1 MOL       0.0559
     47 H12        35.3780   43.5466   -5.1217 H           1 MOL       0.0496
     48 H13        34.7061   42.1307   -4.3330 H           1 MOL       0.0496
     49 H14        36.6029   41.6700   -6.6529 H           1 MOL       0.0576
     50 H15        34.1802   40.1309   -5.6596 H           1 MOL       0.0454
     51 H16        35.8406   39.7121   -5.3130 H           1 MOL       0.0454
     52 H17        34.0658   37.7241   -6.2939 H           1 MOL       0.0557
     53 H18        36.4551   40.3737   -8.5567 H           1 MOL       0.0557
     54 H19        34.0204   36.2005   -8.1567 H           1 MOL       0.0599
     55 H20        36.4329   38.8258  -10.3824 H           1 MOL       0.0599
     56 H21        35.1845   36.7506  -10.2151 H           1 MOL       0.0559
     57 H22        33.2809   41.0524   -7.3250 H           1 MOL       0.1876
     58 H23        31.8979   41.7365   -8.8019 H           1 MOL       0.0749
     59 H24        33.0725   44.3113   -8.1665 H           1 MOL       0.0467
     60 H25        31.4632   43.9051   -8.6266 H           1 MOL       0.0467
     61 H26        34.7613   44.1081  -10.4259 H           1 MOL       0.0557
     62 H27        30.7277   45.3524  -10.3453 H           1 MOL       0.0557
     63 H28        35.1018   45.3590  -12.4579 H           1 MOL       0.0599
     64 H29        31.0858   46.6020  -12.3778 H           1 MOL       0.0599
     65 H30        33.2606   46.5896  -13.4570 H           1 MOL       0.0559
@<TRIPOS>BOND
     1    24    25   1
     2    25    28   1
     3    25    26   1
     4    26    27  ar
     5    26    35  ar
     6    28    29   1
     7    29    30  ar
     8    29    31  ar
     9    31    33  ar
    10    33    34  ar
    11    32    34  ar
    12    30    32  ar
    13     2     1   1
    14     3     2   1
    15     2     6   1
    16     3     4  ar
    17     3     5  ar
    18    13     3   1
    19     6     7   1
    20     7     8  ar
    21     7     9  ar
    22     8    10  ar
    23     9    11  ar
    24    10    12  ar
    25    11    12  ar
    26    14    13   1
    27    14    15   1
    28    22    14   1
    29    15    16   1
    30    16    17  ar
    31    16    18  ar
    32    17    19  ar
    33    18    20  ar
    34    19    21  ar
    35    20    21  ar
    36    22    23   2
    37    22    24  am
    38     1    36   1
    39     1    37   1
    40     1    38   1
    41     2    39   1
    42     6    40   1
    43     6    41   1
    44     8    42   1
    45     9    43   1
    46    10    44   1
    47    11    45   1
    48    12    46   1
    49    13    47   1
    50    13    48   1
    51    14    49   1
    52    15    50   1
    53    15    51   1
    54    17    52   1
    55    18    53   1
    56    19    54   1
    57    20    55   1
    58    21    56   1
    59    24    57   1
    60    25    58   1
    61    28    59   1
    62    28    60   1
    63    30    61   1
    64    31    62   1
    65    32    63   1
    66    33    64   1
    67    34    65   1
@<TRIPOS>SUBSTRUCTURE
     1  MOL      2

