@<TRIPOS>MOLECULE
1os0_ligand_061
    65    67
SMALL
GAST_HUCK
****
This file was generated by PARSER (from files_GN.cpp)

@<TRIPOS>ATOM
      1 N          31.4295   41.7803   -9.8903 N.4         1 MOL       0.2351
      2 CA         31.3967   40.7298  -10.9234 C.3         1 MOL       0.0466
      3 P          32.5662   39.5944  -10.5544 P.3         1 MOL       0.0403
      4 O1P        32.7316   38.7102  -11.6824 O.co2       1 MOL      -0.6153
      5 O2P        33.8190   40.3011  -10.4602 O.co2       1 MOL      -0.6153
      6 CB         31.5869   41.3741  -12.3333 C.3         1 MOL       0.0407
      7 CG         30.6724   42.5244  -12.5752 C.ar        1 MOL      -0.0360
      8 CD1        29.3475   42.3068  -13.0270 C.ar        1 MOL      -0.0601
      9 CD2        31.0912   43.8522  -12.3181 C.ar        1 MOL      -0.0601
     10 CE1        28.4773   43.3922  -13.2345 C.ar        1 MOL      -0.0686
     11 CE2        30.2158   44.9339  -12.5139 C.ar        1 MOL      -0.0686
     12 CZ         28.9086   44.7041  -12.9799 C.ar        1 MOL      -0.0687
     13 CM         32.2399   38.6643   -9.1901 C.3         1 MOL       0.0402
     14 CA         33.4247   38.0932   -8.3279 C.3         1 MOL       0.0742
     15 CB         34.5471   37.3750   -9.1661 C.3         1 MOL       0.0021
     16 CG         35.7443   36.9522   -8.3888 C.ar        1 MOL      -0.0405
     17 CD1        35.5991   36.1147   -7.2580 C.ar        1 MOL      -0.0602
     18 CD2        37.0450   37.3957   -8.7423 C.ar        1 MOL      -0.0602
     19 CE1        36.7168   35.7615   -6.4787 C.ar        1 MOL      -0.0686
     20 CE2        38.1628   37.0444   -7.9624 C.ar        1 MOL      -0.0686
     21 CZ         37.9964   36.2381   -6.8227 C.ar        1 MOL      -0.0687
     22 C          33.9364   39.0272   -7.3080 C.2         1 MOL       0.1844
     23 O          34.2293   38.5584   -6.2109 O.2         1 MOL      -0.3964
     24 N          34.0316   40.3398   -7.4990 N.am        1 MOL      -0.2692
     25 CA         34.4238   41.3052   -6.4965 C.3         1 MOL       0.1038
     26 C          34.0945   42.6474   -7.0527 C.2         1 MOL       0.0621
     27 O          35.0030   43.6491   -7.1406 O.co2       1 MOL      -0.5664
     28 CB         35.9308   41.1049   -6.0612 C.3         1 MOL       0.0159
     29 CG         36.1731   40.9009   -4.6003 C.ar        1 MOL      -0.0392
     30 CD1        37.3085   40.1780   -4.1502 C.ar        1 MOL      -0.0602
     31 CD2        35.3451   41.5201   -3.6300 C.ar        1 MOL      -0.0602
     32 CE1        37.5800   40.0374   -2.7751 C.ar        1 MOL      -0.0686
     33 CE2        35.6101   41.3772   -2.2530 C.ar        1 MOL      -0.0686
     34 CZ         36.7291   40.6352   -1.8243 C.ar        1 MOL      -0.0687
     35 OXT        32.8173   42.9305   -7.4137 O.co2       1 MOL      -0.5664
     36 H1         30.6274   42.3967  -10.0018 H           1 MOL       0.2014
     37 H2         32.2868   42.3261   -9.9825 H           1 MOL       0.2014
     38 H3         31.3918   41.3734   -8.9585 H           1 MOL       0.2014
     39 H4         30.4222   40.2384  -10.8799 H           1 MOL       0.1089
     40 H5         31.4185   40.6264  -13.1177 H           1 MOL       0.0499
     41 H6         32.6236   41.7093  -12.4399 H           1 MOL       0.0499
     42 H7         29.0155   41.3558  -13.2087 H           1 MOL       0.0557
     43 H8         32.0396   44.0372  -11.9694 H           1 MOL       0.0557
     44 H9         27.5272   43.2216  -13.5708 H           1 MOL       0.0599
     45 H10        30.5287   45.8841  -12.3159 H           1 MOL       0.0599
     46 H11        28.2750   45.4879  -13.1219 H           1 MOL       0.0559
     47 H12        31.6286   37.8239   -9.5371 H           1 MOL       0.0496
     48 H13        31.5920   39.2412   -8.5235 H           1 MOL       0.0496
     49 H14        32.9413   37.2787   -7.7676 H           1 MOL       0.0576
     50 H15        34.8709   38.0194   -9.9839 H           1 MOL       0.0454
     51 H16        34.1161   36.4787   -9.6299 H           1 MOL       0.0454
     52 H17        34.6793   35.7653   -6.9853 H           1 MOL       0.0557
     53 H18        37.1880   37.9873   -9.5658 H           1 MOL       0.0557
     54 H19        36.5952   35.1723   -5.6498 H           1 MOL       0.0599
     55 H20        39.0929   37.3828   -8.2186 H           1 MOL       0.0599
     56 H21        38.8070   35.9891   -6.2491 H           1 MOL       0.0559
     57 H22        33.7381   40.6845   -8.3599 H           1 MOL       0.1876
     58 H23        33.7729   41.1864   -5.6166 H           1 MOL       0.0749
     59 H24        36.5465   41.9631   -6.3376 H           1 MOL       0.0467
     60 H25        36.3531   40.2654   -6.6247 H           1 MOL       0.0467
     61 H26        37.9632   39.7714   -4.8215 H           1 MOL       0.0557
     62 H27        34.5372   42.0803   -3.9209 H           1 MOL       0.0557
     63 H28        38.4013   39.5043   -2.4623 H           1 MOL       0.0599
     64 H29        34.9962   41.8184   -1.5612 H           1 MOL       0.0599
     65 H30        36.9244   40.5337   -0.8227 H           1 MOL       0.0559
@<TRIPOS>BOND
     1    24    25   1
     2    25    28   1
     3    25    26   1
     4    26    27  ar
     5    26    35  ar
     6    28    29   1
     7    29    30  ar
     8    29    31  ar
     9    31    33  ar
    10    33    34  ar
    11    32    34  ar
    12    30    32  ar
    13     2     1   1
    14     3     2   1
    15     2     6   1
    16     3     4  ar
    17     3     5  ar
    18    13     3   1
    19     6     7   1
    20     7     8  ar
    21     7     9  ar
    22     8    10  ar
    23     9    11  ar
    24    10    12  ar
    25    11    12  ar
    26    14    13   1
    27    14    15   1
    28    22    14   1
    29    15    16   1
    30    16    17  ar
    31    16    18  ar
    32    17    19  ar
    33    18    20  ar
    34    19    21  ar
    35    20    21  ar
    36    22    23   2
    37    22    24  am
    38     1    36   1
    39     1    37   1
    40     1    38   1
    41     2    39   1
    42     6    40   1
    43     6    41   1
    44     8    42   1
    45     9    43   1
    46    10    44   1
    47    11    45   1
    48    12    46   1
    49    13    47   1
    50    13    48   1
    51    14    49   1
    52    15    50   1
    53    15    51   1
    54    17    52   1
    55    18    53   1
    56    19    54   1
    57    20    55   1
    58    21    56   1
    59    24    57   1
    60    25    58   1
    61    28    59   1
    62    28    60   1
    63    30    61   1
    64    31    62   1
    65    32    63   1
    66    33    64   1
    67    34    65   1
@<TRIPOS>SUBSTRUCTURE
     1  MOL      2

