@<TRIPOS>MOLECULE
1os0_ligand_080
    65    67
SMALL
GAST_HUCK
****
This file was generated by PARSER (from files_GN.cpp)

@<TRIPOS>ATOM
      1 N          38.0596   37.4552   -8.9426 N.4         1 MOL       0.2351
      2 CA         38.0108   36.3656   -7.9548 C.3         1 MOL       0.0466
      3 P          39.0555   36.6689   -6.6741 P.3         1 MOL       0.0403
      4 O1P        39.1220   35.4753   -5.8636 O.co2       1 MOL      -0.6153
      5 O2P        40.3828   36.8134   -7.2322 O.co2       1 MOL      -0.6153
      6 CB         38.2574   35.0098   -8.6984 C.3         1 MOL       0.0407
      7 CG         38.0304   33.7841   -7.8837 C.ar        1 MOL      -0.0360
      8 CD1        39.1174   33.0530   -7.3451 C.ar        1 MOL      -0.0601
      9 CD2        36.7159   33.3646   -7.5739 C.ar        1 MOL      -0.0601
     10 CE1        38.8942   31.9416   -6.5098 C.ar        1 MOL      -0.0686
     11 CE2        36.4908   32.2530   -6.7402 C.ar        1 MOL      -0.0686
     12 CZ         37.5803   31.5407   -6.2060 C.ar        1 MOL      -0.0687
     13 CM         38.7371   38.0098   -5.7129 C.3         1 MOL       0.0402
     14 CA         38.9510   37.8860   -4.1624 C.3         1 MOL       0.0742
     15 CB         40.2899   37.2203   -3.6590 C.3         1 MOL       0.0021
     16 CG         41.5609   38.0081   -3.7457 C.ar        1 MOL      -0.0405
     17 CD1        42.3220   38.0531   -4.9387 C.ar        1 MOL      -0.0602
     18 CD2        42.0585   38.7085   -2.6188 C.ar        1 MOL      -0.0602
     19 CE1        43.5256   38.7827   -5.0107 C.ar        1 MOL      -0.0686
     20 CE2        43.2622   39.4335   -2.6851 C.ar        1 MOL      -0.0686
     21 CZ         43.9982   39.4743   -3.8824 C.ar        1 MOL      -0.0687
     22 C          38.7512   39.1855   -3.5117 C.2         1 MOL       0.1844
     23 O          39.6937   39.9666   -3.4843 O.2         1 MOL      -0.3964
     24 N          37.6056   39.5209   -2.9159 N.am        1 MOL      -0.2692
     25 CA         37.4097   40.6552   -2.0506 C.3         1 MOL       0.1038
     26 C          36.2479   40.3843   -1.1702 C.2         1 MOL       0.0621
     27 O          34.9900   40.4243   -1.6521 O.co2       1 MOL      -0.5664
     28 CB         37.2657   42.0118   -2.8180 C.3         1 MOL       0.0159
     29 CG         37.2409   43.2304   -1.9595 C.ar        1 MOL      -0.0392
     30 CD1        36.1972   44.1824   -2.0764 C.ar        1 MOL      -0.0602
     31 CD2        38.2992   43.5087   -1.0579 C.ar        1 MOL      -0.0602
     32 CE1        36.2112   45.3699   -1.3236 C.ar        1 MOL      -0.0686
     33 CE2        38.3138   44.6937   -0.3014 C.ar        1 MOL      -0.0686
     34 CZ         37.2736   45.6303   -0.4389 C.ar        1 MOL      -0.0687
     35 OXT        36.4447   39.7123   -0.0128 O.co2       1 MOL      -0.5664
     36 H1         37.4287   37.2427   -9.7209 H           1 MOL       0.2014
     37 H2         39.0138   37.5639   -9.3082 H           1 MOL       0.2014
     38 H3         37.7577   38.3304   -8.5106 H           1 MOL       0.2014
     39 H4         36.9940   36.3588   -7.5545 H           1 MOL       0.1089
     40 H5         39.2777   35.0168   -9.1034 H           1 MOL       0.0499
     41 H6         37.5909   34.9570   -9.5650 H           1 MOL       0.0499
     42 H7         40.0799   33.3385   -7.5342 H           1 MOL       0.0557
     43 H8         35.9084   33.8759   -7.9423 H           1 MOL       0.0557
     44 H9         39.6865   31.4300   -6.1147 H           1 MOL       0.0599
     45 H10        35.5345   31.9654   -6.5144 H           1 MOL       0.0599
     46 H11        37.4179   30.7374   -5.5968 H           1 MOL       0.0559
     47 H12        37.6883   38.2702   -5.8800 H           1 MOL       0.0496
     48 H13        39.3277   38.8467   -6.0884 H           1 MOL       0.0496
     49 H14        38.1470   37.2200   -3.8179 H           1 MOL       0.0576
     50 H15        40.4544   36.2704   -4.1815 H           1 MOL       0.0454
     51 H16        40.1193   36.9403   -2.6088 H           1 MOL       0.0454
     52 H17        42.0165   37.5425   -5.7686 H           1 MOL       0.0557
     53 H18        41.5348   38.6969   -1.7440 H           1 MOL       0.0557
     54 H19        44.0595   38.8043   -5.8856 H           1 MOL       0.0599
     55 H20        43.6044   39.9387   -1.8654 H           1 MOL       0.0599
     56 H21        44.8652   40.0075   -3.9364 H           1 MOL       0.0559
     57 H22        36.8609   38.9002   -2.9963 H           1 MOL       0.1876
     58 H23        38.2899   40.7154   -1.4024 H           1 MOL       0.0749
     59 H24        36.3747   41.9549   -3.4479 H           1 MOL       0.0467
     60 H25        38.1082   42.1394   -3.4979 H           1 MOL       0.0467
     61 H26        35.4297   44.0239   -2.7308 H           1 MOL       0.0557
     62 H27        39.0814   42.8559   -0.9610 H           1 MOL       0.0557
     63 H28        35.4581   46.0527   -1.4292 H           1 MOL       0.0599
     64 H29        39.0861   44.8814    0.3424 H           1 MOL       0.0599
     65 H30        37.2954   46.5002    0.0974 H           1 MOL       0.0559
@<TRIPOS>BOND
     1    24    25   1
     2    25    28   1
     3    25    26   1
     4    26    27  ar
     5    26    35  ar
     6    28    29   1
     7    29    30  ar
     8    29    31  ar
     9    31    33  ar
    10    33    34  ar
    11    32    34  ar
    12    30    32  ar
    13     2     1   1
    14     3     2   1
    15     2     6   1
    16     3     4  ar
    17     3     5  ar
    18    13     3   1
    19     6     7   1
    20     7     8  ar
    21     7     9  ar
    22     8    10  ar
    23     9    11  ar
    24    10    12  ar
    25    11    12  ar
    26    14    13   1
    27    14    15   1
    28    22    14   1
    29    15    16   1
    30    16    17  ar
    31    16    18  ar
    32    17    19  ar
    33    18    20  ar
    34    19    21  ar
    35    20    21  ar
    36    22    23   2
    37    22    24  am
    38     1    36   1
    39     1    37   1
    40     1    38   1
    41     2    39   1
    42     6    40   1
    43     6    41   1
    44     8    42   1
    45     9    43   1
    46    10    44   1
    47    11    45   1
    48    12    46   1
    49    13    47   1
    50    13    48   1
    51    14    49   1
    52    15    50   1
    53    15    51   1
    54    17    52   1
    55    18    53   1
    56    19    54   1
    57    20    55   1
    58    21    56   1
    59    24    57   1
    60    25    58   1
    61    28    59   1
    62    28    60   1
    63    30    61   1
    64    31    62   1
    65    32    63   1
    66    33    64   1
    67    34    65   1
@<TRIPOS>SUBSTRUCTURE
     1  MOL      2

