@<TRIPOS>MOLECULE
1os0_ligand_068
    65    67
SMALL
GAST_HUCK
****
This file was generated by PARSER (from files_GN.cpp)

@<TRIPOS>ATOM
      1 N          39.0393   35.4281   -9.5985 N.4         1 MOL       0.2351
      2 CA         37.5886   35.6111   -9.3659 C.3         1 MOL       0.0466
      3 P          37.3162   36.1791   -7.8126 P.3         1 MOL       0.0403
      4 O1P        35.9440   35.9937   -7.3960 O.co2       1 MOL      -0.6153
      5 O2P        38.1114   35.3450   -6.9304 O.co2       1 MOL      -0.6153
      6 CB         36.8125   34.2886   -9.6611 C.3         1 MOL       0.0407
      7 CG         37.1490   33.6202  -10.9530 C.ar        1 MOL      -0.0360
      8 CD1        37.1880   34.3543  -12.1641 C.ar        1 MOL      -0.0601
      9 CD2        37.4064   32.2261  -11.0044 C.ar        1 MOL      -0.0601
     10 CE1        37.5033   33.7221  -13.3802 C.ar        1 MOL      -0.0686
     11 CE2        37.7017   31.5911  -12.2250 C.ar        1 MOL      -0.0686
     12 CZ         37.7571   32.3418  -13.4100 C.ar        1 MOL      -0.0687
     13 CM         37.7962   37.7554   -7.5276 C.3         1 MOL       0.0402
     14 CA         37.5630   38.2973   -6.0552 C.3         1 MOL       0.0742
     15 CB         38.8138   38.9902   -5.3814 C.3         1 MOL       0.0021
     16 CG         39.2082   38.5390   -4.0051 C.ar        1 MOL      -0.0405
     17 CD1        38.2581   38.1112   -3.0413 C.ar        1 MOL      -0.0602
     18 CD2        40.5685   38.6010   -3.6004 C.ar        1 MOL      -0.0602
     19 CE1        38.6562   37.6955   -1.7541 C.ar        1 MOL      -0.0686
     20 CE2        40.9703   38.1873   -2.3133 C.ar        1 MOL      -0.0686
     21 CZ         40.0147   37.7196   -1.3956 C.ar        1 MOL      -0.0687
     22 C          36.3551   39.1352   -5.9778 C.2         1 MOL       0.1844
     23 O          35.2754   38.6078   -5.7427 O.2         1 MOL      -0.3964
     24 N          36.4171   40.4485   -6.1808 N.am        1 MOL      -0.2692
     25 CA         35.3568   41.4183   -6.0433 C.3         1 MOL       0.1038
     26 C          35.0520   41.9433   -7.3955 C.2         1 MOL       0.0621
     27 O          34.2940   41.1926   -8.2335 O.co2       1 MOL      -0.5664
     28 CB         35.8047   42.5232   -5.0367 C.3         1 MOL       0.0159
     29 CG         36.0275   42.0221   -3.6499 C.ar        1 MOL      -0.0392
     30 CD1        34.9407   41.8389   -2.7624 C.ar        1 MOL      -0.0602
     31 CD2        37.3333   41.7502   -3.1805 C.ar        1 MOL      -0.0602
     32 CE1        35.1535   41.3930   -1.4419 C.ar        1 MOL      -0.0686
     33 CE2        37.5464   41.2930   -1.8658 C.ar        1 MOL      -0.0686
     34 CZ         36.4576   41.1144   -0.9948 C.ar        1 MOL      -0.0687
     35 OXT        35.4034   43.1910   -7.7860 O.co2       1 MOL      -0.5664
     36 H1         39.1989   35.1054  -10.5548 H           1 MOL       0.2014
     37 H2         39.4123   34.7288   -8.9504 H           1 MOL       0.2014
     38 H3         39.5435   36.3089   -9.4731 H           1 MOL       0.2014
     39 H4         37.2454   36.3829  -10.0591 H           1 MOL       0.1089
     40 H5         35.7431   34.5003   -9.6827 H           1 MOL       0.0499
     41 H6         36.9832   33.5900   -8.8363 H           1 MOL       0.0499
     42 H7         36.9904   35.3579  -12.1676 H           1 MOL       0.0557
     43 H8         37.3719   31.6608  -10.1527 H           1 MOL       0.0557
     44 H9         37.5428   34.2685  -14.2421 H           1 MOL       0.0599
     45 H10        37.8728   30.5841  -12.2463 H           1 MOL       0.0599
     46 H11        37.9761   31.8809  -14.2968 H           1 MOL       0.0559
     47 H12        37.2928   38.3884   -8.2657 H           1 MOL       0.0496
     48 H13        38.8602   37.7821   -7.7720 H           1 MOL       0.0496
     49 H14        37.3892   37.4129   -5.4329 H           1 MOL       0.0576
     50 H15        38.6770   40.0681   -5.3097 H           1 MOL       0.0454
     51 H16        39.6807   38.8427   -6.0257 H           1 MOL       0.0454
     52 H17        37.2611   38.0955   -3.2712 H           1 MOL       0.0557
     53 H18        41.2869   38.9453   -4.2475 H           1 MOL       0.0557
     54 H19        37.9583   37.3614   -1.0848 H           1 MOL       0.0599
     55 H20        41.9613   38.2135   -2.0571 H           1 MOL       0.0599
     56 H21        40.3070   37.4013   -0.4713 H           1 MOL       0.0559
     57 H22        37.2906   40.8098   -6.4007 H           1 MOL       0.1876
     58 H23        34.4365   40.9725   -5.6599 H           1 MOL       0.0749
     59 H24        35.0427   43.3074   -4.9956 H           1 MOL       0.0467
     60 H25        36.7165   42.9959   -5.4221 H           1 MOL       0.0467
     61 H26        33.9855   42.0409   -3.0630 H           1 MOL       0.0557
     62 H27        38.1426   41.8742   -3.7923 H           1 MOL       0.0557
     63 H28        34.3611   41.2759   -0.8039 H           1 MOL       0.0599
     64 H29        38.4966   41.0877   -1.5447 H           1 MOL       0.0599
     65 H30        36.6144   40.7857   -0.0387 H           1 MOL       0.0559
@<TRIPOS>BOND
     1    24    25   1
     2    25    28   1
     3    25    26   1
     4    26    27  ar
     5    26    35  ar
     6    28    29   1
     7    29    30  ar
     8    29    31  ar
     9    31    33  ar
    10    33    34  ar
    11    32    34  ar
    12    30    32  ar
    13     2     1   1
    14     3     2   1
    15     2     6   1
    16     3     4  ar
    17     3     5  ar
    18    13     3   1
    19     6     7   1
    20     7     8  ar
    21     7     9  ar
    22     8    10  ar
    23     9    11  ar
    24    10    12  ar
    25    11    12  ar
    26    14    13   1
    27    14    15   1
    28    22    14   1
    29    15    16   1
    30    16    17  ar
    31    16    18  ar
    32    17    19  ar
    33    18    20  ar
    34    19    21  ar
    35    20    21  ar
    36    22    23   2
    37    22    24  am
    38     1    36   1
    39     1    37   1
    40     1    38   1
    41     2    39   1
    42     6    40   1
    43     6    41   1
    44     8    42   1
    45     9    43   1
    46    10    44   1
    47    11    45   1
    48    12    46   1
    49    13    47   1
    50    13    48   1
    51    14    49   1
    52    15    50   1
    53    15    51   1
    54    17    52   1
    55    18    53   1
    56    19    54   1
    57    20    55   1
    58    21    56   1
    59    24    57   1
    60    25    58   1
    61    28    59   1
    62    28    60   1
    63    30    61   1
    64    31    62   1
    65    32    63   1
    66    33    64   1
    67    34    65   1
@<TRIPOS>SUBSTRUCTURE
     1  MOL      2

