@<TRIPOS>MOLECULE
1os0_ligand_025
    65    67
SMALL
GAST_HUCK
****
This file was generated by PARSER (from files_GN.cpp)

@<TRIPOS>ATOM
      1 N          34.4408   42.7680   -1.4745 N.4         1 MOL       0.2351
      2 CA         35.8659   43.0983   -1.6376 C.3         1 MOL       0.0466
      3 P          36.3404   42.8790   -3.2297 P.3         1 MOL       0.0403
      4 O1P        35.7309   43.8953   -4.0533 O.co2       1 MOL      -0.6153
      5 O2P        37.7556   43.1457   -3.3152 O.co2       1 MOL      -0.6153
      6 CB         36.7571   42.3949   -0.5609 C.3         1 MOL       0.0407
      7 CG         37.0667   40.9499   -0.7822 C.ar        1 MOL      -0.0360
      8 CD1        38.2192   40.5583   -1.5110 C.ar        1 MOL      -0.0601
      9 CD2        36.1985   39.9467   -0.3088 C.ar        1 MOL      -0.0601
     10 CE1        38.4979   39.1947   -1.7388 C.ar        1 MOL      -0.0686
     11 CE2        36.4731   38.5822   -0.5344 C.ar        1 MOL      -0.0686
     12 CZ         37.6264   38.2112   -1.2541 C.ar        1 MOL      -0.0687
     13 CM         35.9749   41.3862   -3.8853 C.3         1 MOL       0.0402
     14 CA         36.7226   40.9728   -5.1914 C.3         1 MOL       0.0742
     15 CB         36.8900   39.4070   -5.3006 C.3         1 MOL       0.0021
     16 CG         38.2721   38.9122   -5.5396 C.ar        1 MOL      -0.0405
     17 CD1        38.5305   37.8376   -6.4376 C.ar        1 MOL      -0.0602
     18 CD2        39.3667   39.4531   -4.8168 C.ar        1 MOL      -0.0602
     19 CE1        39.8351   37.3524   -6.6261 C.ar        1 MOL      -0.0686
     20 CE2        40.6749   38.9842   -5.0203 C.ar        1 MOL      -0.0686
     21 CZ         40.9121   37.9197   -5.9188 C.ar        1 MOL      -0.0687
     22 C          36.0895   41.5839   -6.3651 C.2         1 MOL       0.1844
     23 O          36.4019   42.7273   -6.7060 O.2         1 MOL      -0.3964
     24 N          35.0904   40.9583   -6.9794 N.am        1 MOL      -0.2692
     25 CA         34.3723   41.4254   -8.1341 C.3         1 MOL       0.1038
     26 C          33.9396   42.8309   -7.9321 C.2         1 MOL       0.0621
     27 O          34.8328   43.7588   -7.4937 O.co2       1 MOL      -0.5664
     28 CB         33.2135   40.4225   -8.4402 C.3         1 MOL       0.0159
     29 CG         32.5567   40.6181   -9.7631 C.ar        1 MOL      -0.0392
     30 CD1        33.2979   40.4548  -10.9605 C.ar        1 MOL      -0.0602
     31 CD2        31.1715   40.8992   -9.8621 C.ar        1 MOL      -0.0602
     32 CE1        32.6722   40.5708  -12.2185 C.ar        1 MOL      -0.0686
     33 CE2        30.5479   41.0207  -11.1196 C.ar        1 MOL      -0.0686
     34 CZ         31.2968   40.8491  -12.2980 C.ar        1 MOL      -0.0687
     35 OXT        32.6556   43.2305   -8.0817 O.co2       1 MOL      -0.5664
     36 H1         34.1693   42.8695   -0.4940 H           1 MOL       0.2014
     37 H2         34.2690   41.8032   -1.7722 H           1 MOL       0.2014
     38 H3         33.8787   43.4021   -2.0461 H           1 MOL       0.2014
     39 H4         35.9416   44.1699   -1.4347 H           1 MOL       0.1089
     40 H5         36.2644   42.4876    0.4122 H           1 MOL       0.0499
     41 H6         37.6888   42.9647   -0.4700 H           1 MOL       0.0499
     42 H7         38.8515   41.2599   -1.8924 H           1 MOL       0.0557
     43 H8         35.3531   40.1976    0.2052 H           1 MOL       0.0557
     44 H9         39.3346   38.9293   -2.2689 H           1 MOL       0.0599
     45 H10        35.8362   37.8676   -0.1807 H           1 MOL       0.0599
     46 H11        37.8286   37.2204   -1.4130 H           1 MOL       0.0559
     47 H12        34.8907   41.3297   -4.0334 H           1 MOL       0.0496
     48 H13        36.2241   40.6706   -3.1085 H           1 MOL       0.0496
     49 H14        37.7277   41.3925   -5.1174 H           1 MOL       0.0576
     50 H15        36.2104   39.0121   -6.0648 H           1 MOL       0.0454
     51 H16        36.5864   38.9197   -4.3754 H           1 MOL       0.0454
     52 H17        37.7664   37.4113   -6.9677 H           1 MOL       0.0557
     53 H18        39.2160   40.2147   -4.1458 H           1 MOL       0.0557
     54 H19        40.0037   36.5795   -7.2812 H           1 MOL       0.0599
     55 H20        41.4541   39.3952   -4.4987 H           1 MOL       0.0599
     56 H21        41.8595   37.5682   -6.0550 H           1 MOL       0.0559
     57 H22        34.8486   40.0818   -6.6429 H           1 MOL       0.1876
     58 H23        35.0650   41.4258   -8.9786 H           1 MOL       0.0749
     59 H24        32.4882   40.4835   -7.6219 H           1 MOL       0.0467
     60 H25        33.6128   39.4023   -8.4192 H           1 MOL       0.0467
     61 H26        34.2973   40.2354  -10.9216 H           1 MOL       0.0557
     62 H27        30.6079   41.0242   -9.0167 H           1 MOL       0.0557
     63 H28        33.2159   40.4461  -13.0727 H           1 MOL       0.0599
     64 H29        29.5491   41.2211  -11.1753 H           1 MOL       0.0599
     65 H30        30.8419   40.9258  -13.2073 H           1 MOL       0.0559
@<TRIPOS>BOND
     1    24    25   1
     2    25    28   1
     3    25    26   1
     4    26    27  ar
     5    26    35  ar
     6    28    29   1
     7    29    30  ar
     8    29    31  ar
     9    31    33  ar
    10    33    34  ar
    11    32    34  ar
    12    30    32  ar
    13     2     1   1
    14     3     2   1
    15     2     6   1
    16     3     4  ar
    17     3     5  ar
    18    13     3   1
    19     6     7   1
    20     7     8  ar
    21     7     9  ar
    22     8    10  ar
    23     9    11  ar
    24    10    12  ar
    25    11    12  ar
    26    14    13   1
    27    14    15   1
    28    22    14   1
    29    15    16   1
    30    16    17  ar
    31    16    18  ar
    32    17    19  ar
    33    18    20  ar
    34    19    21  ar
    35    20    21  ar
    36    22    23   2
    37    22    24  am
    38     1    36   1
    39     1    37   1
    40     1    38   1
    41     2    39   1
    42     6    40   1
    43     6    41   1
    44     8    42   1
    45     9    43   1
    46    10    44   1
    47    11    45   1
    48    12    46   1
    49    13    47   1
    50    13    48   1
    51    14    49   1
    52    15    50   1
    53    15    51   1
    54    17    52   1
    55    18    53   1
    56    19    54   1
    57    20    55   1
    58    21    56   1
    59    24    57   1
    60    25    58   1
    61    28    59   1
    62    28    60   1
    63    30    61   1
    64    31    62   1
    65    32    63   1
    66    33    64   1
    67    34    65   1
@<TRIPOS>SUBSTRUCTURE
     1  MOL      2

