@<TRIPOS>MOLECULE
1os0_ligand_005
    65    67
SMALL
GAST_HUCK
****
This file was generated by PARSER (from files_GN.cpp)

@<TRIPOS>ATOM
      1 N          35.7558   39.9359   -5.2906 N.4         1 MOL       0.2351
      2 CA         35.2445   41.3165   -5.4160 C.3         1 MOL       0.0466
      3 P          35.0920   41.7607   -7.0393 P.3         1 MOL       0.0403
      4 O1P        35.7409   43.0300   -7.2707 O.co2       1 MOL      -0.6153
      5 O2P        35.7484   40.7851   -7.8768 O.co2       1 MOL      -0.6153
      6 CB         36.1199   42.2851   -4.5583 C.3         1 MOL       0.0407
      7 CG         36.0904   42.0176   -3.0915 C.ar        1 MOL      -0.0360
      8 CD1        34.8546   41.9372   -2.4073 C.ar        1 MOL      -0.0601
      9 CD2        37.2892   41.8844   -2.3493 C.ar        1 MOL      -0.0601
     10 CE1        34.8171   41.6957   -1.0215 C.ar        1 MOL      -0.0686
     11 CE2        37.2479   41.6644   -0.9603 C.ar        1 MOL      -0.0686
     12 CZ         36.0140   41.5651   -0.2963 C.ar        1 MOL      -0.0687
     13 CM         33.4960   41.9499   -7.5144 C.3         1 MOL       0.0402
     14 CA         33.1130   42.0706   -9.0464 C.3         1 MOL       0.0742
     15 CB         34.2745   42.2956  -10.0801 C.3         1 MOL       0.0021
     16 CG         33.8706   42.5888  -11.4863 C.ar        1 MOL      -0.0405
     17 CD1        34.0792   43.8702  -12.0583 C.ar        1 MOL      -0.0602
     18 CD2        33.3478   41.5651  -12.3125 C.ar        1 MOL      -0.0602
     19 CE1        33.7806   44.1161  -13.4105 C.ar        1 MOL      -0.0686
     20 CE2        33.0279   41.8131  -13.6592 C.ar        1 MOL      -0.0686
     21 CZ         33.2454   43.0883  -14.2116 C.ar        1 MOL      -0.0687
     22 C          32.2341   40.9635   -9.4311 C.2         1 MOL       0.1844
     23 O          32.7221   39.8464   -9.5609 O.2         1 MOL      -0.3964
     24 N          30.9149   41.1414   -9.4897 N.am        1 MOL      -0.2692
     25 CA         29.8937   40.1801   -9.8147 C.3         1 MOL       0.1038
     26 C          29.9543   38.9099   -9.0406 C.2         1 MOL       0.0621
     27 O          30.9532   38.6290   -8.1700 O.co2       1 MOL      -0.5664
     28 CB         29.8236   39.9245  -11.3535 C.3         1 MOL       0.0159
     29 CG         28.5421   39.2937  -11.7823 C.ar        1 MOL      -0.0392
     30 CD1        27.4291   40.1049  -12.1098 C.ar        1 MOL      -0.0602
     31 CD2        28.4001   37.8869  -11.8398 C.ar        1 MOL      -0.0602
     32 CE1        26.2023   39.5227  -12.4811 C.ar        1 MOL      -0.0686
     33 CE2        27.1685   37.3080  -12.2021 C.ar        1 MOL      -0.0686
     34 CZ         26.0709   38.1256  -12.5243 C.ar        1 MOL      -0.0687
     35 OXT        28.8815   38.0862   -9.0257 O.co2       1 MOL      -0.5664
     36 H1         35.7633   39.6576   -4.3085 H           1 MOL       0.2014
     37 H2         36.7107   39.8751   -5.6616 H           1 MOL       0.2014
     38 H3         35.1563   39.2892   -5.8067 H           1 MOL       0.2014
     39 H4         34.2403   41.3029   -4.9861 H           1 MOL       0.1089
     40 H5         35.7779   43.3126   -4.7111 H           1 MOL       0.0499
     41 H6         37.1516   42.2346   -4.9313 H           1 MOL       0.0499
     42 H7         33.9735   42.0492   -2.9162 H           1 MOL       0.0557
     43 H8         38.1998   41.9383   -2.8153 H           1 MOL       0.0557
     44 H9         33.9167   41.6246   -0.5452 H           1 MOL       0.0599
     45 H10        38.1161   41.5872   -0.4311 H           1 MOL       0.0599
     46 H11        35.9882   41.3897    0.7083 H           1 MOL       0.0559
     47 H12        33.1375   42.8484   -7.0016 H           1 MOL       0.0496
     48 H13        32.9530   41.1155   -7.0625 H           1 MOL       0.0496
     49 H14        32.5181   42.9868   -9.1176 H           1 MOL       0.0576
     50 H15        34.9297   41.4274  -10.1105 H           1 MOL       0.0454
     51 H16        34.8821   43.1312   -9.7209 H           1 MOL       0.0454
     52 H17        34.4621   44.6337  -11.4960 H           1 MOL       0.0557
     53 H18        33.2196   40.6194  -11.9505 H           1 MOL       0.0557
     54 H19        33.9389   45.0436  -13.8148 H           1 MOL       0.0599
     55 H20        32.6332   41.0645  -14.2389 H           1 MOL       0.0599
     56 H21        33.0094   43.2678  -15.1947 H           1 MOL       0.0559
     57 H22        30.5860   42.0380   -9.3166 H           1 MOL       0.1876
     58 H23        28.9583   40.6675   -9.5034 H           1 MOL       0.0749
     59 H24        30.6838   39.3155  -11.6533 H           1 MOL       0.0467
     60 H25        29.9247   40.8735  -11.8913 H           1 MOL       0.0467
     61 H26        27.5042   41.1242  -12.0807 H           1 MOL       0.0557
     62 H27        29.1849   37.2777  -11.5960 H           1 MOL       0.0557
     63 H28        25.4069   40.1195  -12.7200 H           1 MOL       0.0599
     64 H29        27.0732   36.2916  -12.2271 H           1 MOL       0.0599
     65 H30        25.1792   37.7042  -12.7858 H           1 MOL       0.0559
@<TRIPOS>BOND
     1    24    25   1
     2    25    28   1
     3    25    26   1
     4    26    27  ar
     5    26    35  ar
     6    28    29   1
     7    29    30  ar
     8    29    31  ar
     9    31    33  ar
    10    33    34  ar
    11    32    34  ar
    12    30    32  ar
    13     2     1   1
    14     3     2   1
    15     2     6   1
    16     3     4  ar
    17     3     5  ar
    18    13     3   1
    19     6     7   1
    20     7     8  ar
    21     7     9  ar
    22     8    10  ar
    23     9    11  ar
    24    10    12  ar
    25    11    12  ar
    26    14    13   1
    27    14    15   1
    28    22    14   1
    29    15    16   1
    30    16    17  ar
    31    16    18  ar
    32    17    19  ar
    33    18    20  ar
    34    19    21  ar
    35    20    21  ar
    36    22    23   2
    37    22    24  am
    38     1    36   1
    39     1    37   1
    40     1    38   1
    41     2    39   1
    42     6    40   1
    43     6    41   1
    44     8    42   1
    45     9    43   1
    46    10    44   1
    47    11    45   1
    48    12    46   1
    49    13    47   1
    50    13    48   1
    51    14    49   1
    52    15    50   1
    53    15    51   1
    54    17    52   1
    55    18    53   1
    56    19    54   1
    57    20    55   1
    58    21    56   1
    59    24    57   1
    60    25    58   1
    61    28    59   1
    62    28    60   1
    63    30    61   1
    64    31    62   1
    65    32    63   1
    66    33    64   1
    67    34    65   1
@<TRIPOS>SUBSTRUCTURE
     1  MOL      2

