@<TRIPOS>MOLECULE
1os0_ligand_084
    65    67
SMALL
GAST_HUCK
****
This file was generated by PARSER (from files_GN.cpp)

@<TRIPOS>ATOM
      1 N          33.9328   42.5390   -5.9414 N.4         1 MOL       0.2351
      2 CA         35.2154   41.8772   -6.2365 C.3         1 MOL       0.0466
      3 P          35.0340   40.8721   -7.5638 P.3         1 MOL       0.0403
      4 O1P        35.1239   41.7355   -8.7132 O.co2       1 MOL      -0.6153
      5 O2P        36.1396   39.9564   -7.6788 O.co2       1 MOL      -0.6153
      6 CB         35.7701   41.1864   -4.9531 C.3         1 MOL       0.0407
      7 CG         35.9086   42.1364   -3.8089 C.ar        1 MOL      -0.0360
      8 CD1        36.9122   43.1364   -3.8190 C.ar        1 MOL      -0.0601
      9 CD2        35.0148   42.0924   -2.7119 C.ar        1 MOL      -0.0601
     10 CE1        36.9929   44.0853   -2.7843 C.ar        1 MOL      -0.0686
     11 CE2        35.1035   43.0330   -1.6705 C.ar        1 MOL      -0.0686
     12 CZ         36.0892   44.0339   -1.7084 C.ar        1 MOL      -0.0687
     13 CM         33.5794   40.0424   -7.6230 C.3         1 MOL       0.0402
     14 CA         33.2392   39.2410   -8.9332 C.3         1 MOL       0.0742
     15 CB         31.7975   38.5939   -8.8542 C.3         1 MOL       0.0021
     16 CG         30.8439   38.8694   -9.9718 C.ar        1 MOL      -0.0405
     17 CD1        30.8812   38.0895  -11.1528 C.ar        1 MOL      -0.0602
     18 CD2        29.9260   39.9449   -9.8958 C.ar        1 MOL      -0.0602
     19 CE1        30.0147   38.3711  -12.2254 C.ar        1 MOL      -0.0686
     20 CE2        29.0646   40.2290  -10.9709 C.ar        1 MOL      -0.0686
     21 CZ         29.1043   39.4390  -12.1335 C.ar        1 MOL      -0.0687
     22 C          33.4785   40.0243  -10.1530 C.2         1 MOL       0.1844
     23 O          34.1830   39.5443  -11.0347 O.2         1 MOL      -0.3964
     24 N          32.9506   41.2372  -10.2758 N.am        1 MOL      -0.2692
     25 CA         33.1653   42.1869  -11.3282 C.3         1 MOL       0.1038
     26 C          33.5916   43.4643  -10.7120 C.2         1 MOL       0.0621
     27 O          34.4754   44.2745  -11.3420 O.co2       1 MOL      -0.5664
     28 CB         31.8637   42.3416  -12.1643 C.3         1 MOL       0.0159
     29 CG         31.9854   43.3192  -13.2834 C.ar        1 MOL      -0.0392
     30 CD1        33.1062   43.2837  -14.1475 C.ar        1 MOL      -0.0602
     31 CD2        30.9952   44.3068  -13.4997 C.ar        1 MOL      -0.0602
     32 CE1        33.2438   44.2208  -15.1874 C.ar        1 MOL      -0.0686
     33 CE2        31.1299   45.2412  -14.5433 C.ar        1 MOL      -0.0686
     34 CZ         32.2567   45.2030  -15.3835 C.ar        1 MOL      -0.0687
     35 OXT        33.0412   43.8956   -9.5533 O.co2       1 MOL      -0.5664
     36 H1         34.0664   43.2418   -5.2149 H           1 MOL       0.2014
     37 H2         33.2625   41.8451   -5.5973 H           1 MOL       0.2014
     38 H3         33.5661   42.9952   -6.7791 H           1 MOL       0.2014
     39 H4         35.9209   42.6568   -6.5299 H           1 MOL       0.1089
     40 H5         36.7569   40.7572   -5.1526 H           1 MOL       0.0499
     41 H6         35.1073   40.3557   -4.6889 H           1 MOL       0.0499
     42 H7         37.5798   43.1943   -4.5923 H           1 MOL       0.0557
     43 H8         34.2767   41.3891   -2.6740 H           1 MOL       0.0557
     44 H9         37.7058   44.8187   -2.8176 H           1 MOL       0.0599
     45 H10        34.4437   42.9930   -0.8894 H           1 MOL       0.0599
     46 H11        36.1444   44.7273   -0.9569 H           1 MOL       0.0559
     47 H12        32.7748   40.7574   -7.4420 H           1 MOL       0.0496
     48 H13        33.5840   39.3462   -6.7802 H           1 MOL       0.0496
     49 H14        33.9429   38.3985   -8.9387 H           1 MOL       0.0576
     50 H15        31.3115   38.8759   -7.9149 H           1 MOL       0.0454
     51 H16        31.9044   37.5064   -8.7831 H           1 MOL       0.0454
     52 H17        31.5511   37.3202  -11.2442 H           1 MOL       0.0557
     53 H18        29.8931   40.5411   -9.0640 H           1 MOL       0.0557
     54 H19        30.0497   37.8021  -13.0748 H           1 MOL       0.0599
     55 H20        28.4088   41.0116  -10.9064 H           1 MOL       0.0599
     56 H21        28.4744   39.6441  -12.9131 H           1 MOL       0.0559
     57 H22        32.3744   41.5325   -9.5524 H           1 MOL       0.1876
     58 H23        33.9640   41.8475  -11.9911 H           1 MOL       0.0749
     59 H24        31.0461   42.6186  -11.4916 H           1 MOL       0.0467
     60 H25        31.6047   41.3715  -12.5930 H           1 MOL       0.0467
     61 H26        33.8367   42.5778  -14.0224 H           1 MOL       0.0557
     62 H27        30.1724   44.3599  -12.8943 H           1 MOL       0.0557
     63 H28        34.0612   44.1882  -15.8008 H           1 MOL       0.0599
     64 H29        30.4088   45.9494  -14.6902 H           1 MOL       0.0599
     65 H30        32.3556   45.8843  -16.1387 H           1 MOL       0.0559
@<TRIPOS>BOND
     1    24    25   1
     2    25    28   1
     3    25    26   1
     4    26    27  ar
     5    26    35  ar
     6    28    29   1
     7    29    30  ar
     8    29    31  ar
     9    31    33  ar
    10    33    34  ar
    11    32    34  ar
    12    30    32  ar
    13     2     1   1
    14     3     2   1
    15     2     6   1
    16     3     4  ar
    17     3     5  ar
    18    13     3   1
    19     6     7   1
    20     7     8  ar
    21     7     9  ar
    22     8    10  ar
    23     9    11  ar
    24    10    12  ar
    25    11    12  ar
    26    14    13   1
    27    14    15   1
    28    22    14   1
    29    15    16   1
    30    16    17  ar
    31    16    18  ar
    32    17    19  ar
    33    18    20  ar
    34    19    21  ar
    35    20    21  ar
    36    22    23   2
    37    22    24  am
    38     1    36   1
    39     1    37   1
    40     1    38   1
    41     2    39   1
    42     6    40   1
    43     6    41   1
    44     8    42   1
    45     9    43   1
    46    10    44   1
    47    11    45   1
    48    12    46   1
    49    13    47   1
    50    13    48   1
    51    14    49   1
    52    15    50   1
    53    15    51   1
    54    17    52   1
    55    18    53   1
    56    19    54   1
    57    20    55   1
    58    21    56   1
    59    24    57   1
    60    25    58   1
    61    28    59   1
    62    28    60   1
    63    30    61   1
    64    31    62   1
    65    32    63   1
    66    33    64   1
    67    34    65   1
@<TRIPOS>SUBSTRUCTURE
     1  MOL      2

