@<TRIPOS>MOLECULE
1os0_ligand_024
    65    67
SMALL
GAST_HUCK
****
This file was generated by PARSER (from files_GN.cpp)

@<TRIPOS>ATOM
      1 N          32.4460   46.2593  -12.1055 N.4         1 MOL       0.2351
      2 CA         32.5780   44.8857  -12.6395 C.3         1 MOL       0.0466
      3 P          32.9461   43.8321  -11.3757 P.3         1 MOL       0.0403
      4 O1P        33.8609   42.7957  -11.7929 O.co2       1 MOL      -0.6153
      5 O2P        33.6541   44.5633  -10.3475 O.co2       1 MOL      -0.6153
      6 CB         33.5380   44.8573  -13.8806 C.3         1 MOL       0.0407
      7 CG         33.0343   43.9807  -14.9784 C.ar        1 MOL      -0.0360
      8 CD1        32.3333   44.5391  -16.0783 C.ar        1 MOL      -0.0601
      9 CD2        33.1660   42.5718  -14.9098 C.ar        1 MOL      -0.0601
     10 CE1        31.7629   43.7161  -17.0678 C.ar        1 MOL      -0.0686
     11 CE2        32.5896   41.7479  -15.8975 C.ar        1 MOL      -0.0686
     12 CZ         31.8839   42.3175  -16.9759 C.ar        1 MOL      -0.0687
     13 CM         31.5546   43.1842  -10.7059 C.3         1 MOL       0.0402
     14 CA         31.6436   41.9532   -9.7299 C.3         1 MOL       0.0742
     15 CB         31.9377   40.6265  -10.5124 C.3         1 MOL       0.0021
     16 CG         31.5656   39.3166   -9.9006 C.ar        1 MOL      -0.0405
     17 CD1        32.2958   38.1460  -10.2389 C.ar        1 MOL      -0.0602
     18 CD2        30.3990   39.1649   -9.1132 C.ar        1 MOL      -0.0602
     19 CE1        31.8882   36.8763   -9.7849 C.ar        1 MOL      -0.0686
     20 CE2        30.0120   37.8979   -8.6299 C.ar        1 MOL      -0.0686
     21 CZ         30.7582   36.7562   -8.9623 C.ar        1 MOL      -0.0687
     22 C          32.4477   42.2327   -8.5354 C.2         1 MOL       0.1844
     23 O          32.2404   43.2915   -7.9590 O.2         1 MOL      -0.3964
     24 N          33.3417   41.3829   -8.0259 N.am        1 MOL      -0.2692
     25 CA         34.1194   41.5864   -6.8218 C.3         1 MOL       0.1038
     26 C          35.1093   42.6836   -6.9477 C.2         1 MOL       0.0621
     27 O          35.7591   43.1509   -5.8608 O.co2       1 MOL      -0.5664
     28 CB         34.7849   40.2570   -6.3203 C.3         1 MOL       0.0159
     29 CG         35.2658   39.2928   -7.3570 C.ar        1 MOL      -0.0392
     30 CD1        36.0546   39.7294   -8.4472 C.ar        1 MOL      -0.0602
     31 CD2        34.9721   37.9129   -7.2500 C.ar        1 MOL      -0.0602
     32 CE1        36.5113   38.8214   -9.4194 C.ar        1 MOL      -0.0686
     33 CE2        35.4561   36.9963   -8.2062 C.ar        1 MOL      -0.0686
     34 CZ         36.2168   37.4537   -9.2936 C.ar        1 MOL      -0.0687
     35 OXT        35.3022   43.3640   -8.0933 O.co2       1 MOL      -0.5664
     36 H1         32.1198   46.8875  -12.8496 H           1 MOL       0.2014
     37 H2         33.3462   46.5852  -11.7561 H           1 MOL       0.2014
     38 H3         31.7627   46.2685  -11.3450 H           1 MOL       0.2014
     39 H4         31.5726   44.6302  -12.9762 H           1 MOL       0.1089
     40 H5         34.5527   44.5435  -13.6145 H           1 MOL       0.0499
     41 H6         33.6477   45.8761  -14.2718 H           1 MOL       0.0499
     42 H7         32.2060   45.5483  -16.1530 H           1 MOL       0.0557
     43 H8         33.6662   42.1314  -14.1408 H           1 MOL       0.0557
     44 H9         31.2481   44.1333  -17.8425 H           1 MOL       0.0599
     45 H10        32.6749   40.7314  -15.8322 H           1 MOL       0.0599
     46 H11        31.4572   41.7217  -17.6834 H           1 MOL       0.0559
     47 H12        30.8921   42.9109  -11.5352 H           1 MOL       0.0496
     48 H13        31.0523   44.0058  -10.1899 H           1 MOL       0.0496
     49 H14        30.6279   41.8579   -9.3372 H           1 MOL       0.0576
     50 H15        33.0017   40.6183  -10.7691 H           1 MOL       0.0454
     51 H16        31.3976   40.6561  -11.4648 H           1 MOL       0.0454
     52 H17        33.1081   38.1939  -10.8581 H           1 MOL       0.0557
     53 H18        29.8031   39.9679   -8.9061 H           1 MOL       0.0557
     54 H19        32.4068   36.0442  -10.0678 H           1 MOL       0.0599
     55 H20        29.1686   37.8082   -8.0574 H           1 MOL       0.0599
     56 H21        30.4678   35.8353   -8.6255 H           1 MOL       0.0559
     57 H22        33.4441   40.5277   -8.4775 H           1 MOL       0.1876
     58 H23        33.4207   41.9063   -6.0374 H           1 MOL       0.0749
     59 H24        34.0568   39.7557   -5.6744 H           1 MOL       0.0467
     60 H25        35.6382   40.4904   -5.6789 H           1 MOL       0.0467
     61 H26        36.3044   40.7143   -8.5495 H           1 MOL       0.0557
     62 H27        34.4094   37.5595   -6.4716 H           1 MOL       0.0557
     63 H28        37.0633   39.1555  -10.2089 H           1 MOL       0.0599
     64 H29        35.2497   36.0003   -8.1068 H           1 MOL       0.0599
     65 H30        36.5581   36.7907   -9.9945 H           1 MOL       0.0559
@<TRIPOS>BOND
     1    24    25   1
     2    25    28   1
     3    25    26   1
     4    26    27  ar
     5    26    35  ar
     6    28    29   1
     7    29    30  ar
     8    29    31  ar
     9    31    33  ar
    10    33    34  ar
    11    32    34  ar
    12    30    32  ar
    13     2     1   1
    14     3     2   1
    15     2     6   1
    16     3     4  ar
    17     3     5  ar
    18    13     3   1
    19     6     7   1
    20     7     8  ar
    21     7     9  ar
    22     8    10  ar
    23     9    11  ar
    24    10    12  ar
    25    11    12  ar
    26    14    13   1
    27    14    15   1
    28    22    14   1
    29    15    16   1
    30    16    17  ar
    31    16    18  ar
    32    17    19  ar
    33    18    20  ar
    34    19    21  ar
    35    20    21  ar
    36    22    23   2
    37    22    24  am
    38     1    36   1
    39     1    37   1
    40     1    38   1
    41     2    39   1
    42     6    40   1
    43     6    41   1
    44     8    42   1
    45     9    43   1
    46    10    44   1
    47    11    45   1
    48    12    46   1
    49    13    47   1
    50    13    48   1
    51    14    49   1
    52    15    50   1
    53    15    51   1
    54    17    52   1
    55    18    53   1
    56    19    54   1
    57    20    55   1
    58    21    56   1
    59    24    57   1
    60    25    58   1
    61    28    59   1
    62    28    60   1
    63    30    61   1
    64    31    62   1
    65    32    63   1
    66    33    64   1
    67    34    65   1
@<TRIPOS>SUBSTRUCTURE
     1  MOL      2

