@<TRIPOS>MOLECULE
1os0_ligand_034
    65    67
SMALL
GAST_HUCK
****
This file was generated by PARSER (from files_GN.cpp)

@<TRIPOS>ATOM
      1 N          33.7993   42.6034   -5.9057 N.4         1 MOL       0.2351
      2 CA         34.5093   42.4766   -7.1863 C.3         1 MOL       0.0466
      3 P          33.4197   42.2880   -8.4387 P.3         1 MOL       0.0403
      4 O1P        33.1525   40.8849   -8.6678 O.co2       1 MOL      -0.6153
      5 O2P        32.1358   42.8465   -8.0738 O.co2       1 MOL      -0.6153
      6 CB         35.6563   41.4127   -7.0743 C.3         1 MOL       0.0407
      7 CG         35.3207   40.0031   -7.4301 C.ar        1 MOL      -0.0360
      8 CD1        35.7181   39.4565   -8.6797 C.ar        1 MOL      -0.0601
      9 CD2        34.6360   39.1558   -6.5299 C.ar        1 MOL      -0.0601
     10 CE1        35.3452   38.1504   -9.0524 C.ar        1 MOL      -0.0686
     11 CE2        34.2554   37.8529   -6.9053 C.ar        1 MOL      -0.0686
     12 CZ         34.5994   37.3551   -8.1688 C.ar        1 MOL      -0.0687
     13 CM         33.9224   43.0455   -9.8408 C.3         1 MOL       0.0402
     14 CA         32.7994   43.6452  -10.7649 C.3         1 MOL       0.0742
     15 CB         33.2917   44.9612  -11.4675 C.3         1 MOL       0.0021
     16 CG         32.9213   45.1547  -12.9043 C.ar        1 MOL      -0.0405
     17 CD1        31.5708   45.3364  -13.2808 C.ar        1 MOL      -0.0602
     18 CD2        33.9183   45.1799  -13.9005 C.ar        1 MOL      -0.0602
     19 CE1        31.2161   45.4882  -14.6333 C.ar        1 MOL      -0.0686
     20 CE2        33.5752   45.3512  -15.2527 C.ar        1 MOL      -0.0686
     21 CZ         32.2201   45.5001  -15.6233 C.ar        1 MOL      -0.0687
     22 C          32.2889   42.6331  -11.6986 C.2         1 MOL       0.1844
     23 O          33.0773   42.0921  -12.4730 O.2         1 MOL      -0.3964
     24 N          30.9950   42.3805  -11.7366 N.am        1 MOL      -0.2692
     25 CA         30.2699   41.7241  -12.7839 C.3         1 MOL       0.1038
     26 C          28.8446   42.0591  -12.5764 C.2         1 MOL       0.0621
     27 O          28.0353   41.2387  -11.8666 O.co2       1 MOL      -0.5664
     28 CB         30.4773   40.1766  -12.8867 C.3         1 MOL       0.0159
     29 CG         29.8910   39.5735  -14.1224 C.ar        1 MOL      -0.0392
     30 CD1        30.4322   39.8897  -15.3959 C.ar        1 MOL      -0.0602
     31 CD2        28.8089   38.6569  -14.0675 C.ar        1 MOL      -0.0602
     32 CE1        29.9165   39.3103  -16.5693 C.ar        1 MOL      -0.0686
     33 CE2        28.2969   38.0740  -15.2437 C.ar        1 MOL      -0.0686
     34 CZ         28.8534   38.3971  -16.4928 C.ar        1 MOL      -0.0687
     35 OXT        28.3726   43.3013  -12.9019 O.co2       1 MOL      -0.5664
     36 H1         34.4769   42.7766   -5.1583 H           1 MOL       0.2014
     37 H2         33.2799   41.7528   -5.6933 H           1 MOL       0.2014
     38 H3         33.1492   43.3921   -5.9431 H           1 MOL       0.2014
     39 H4         34.9869   43.4490   -7.3291 H           1 MOL       0.1089
     40 H5         36.0357   41.4249   -6.0464 H           1 MOL       0.0499
     41 H6         36.4861   41.7695   -7.6896 H           1 MOL       0.0499
     42 H7         36.2783   40.0077   -9.3334 H           1 MOL       0.0557
     43 H8         34.4054   39.4740   -5.5897 H           1 MOL       0.0557
     44 H9         35.6329   37.7747   -9.9566 H           1 MOL       0.0599
     45 H10        33.7482   37.2540   -6.2411 H           1 MOL       0.0599
     46 H11        34.3144   36.4085   -8.4453 H           1 MOL       0.0559
     47 H12        34.5458   42.3467  -10.4078 H           1 MOL       0.0496
     48 H13        34.5726   43.8598   -9.5287 H           1 MOL       0.0496
     49 H14        31.9719   43.9638  -10.1204 H           1 MOL       0.0576
     50 H15        34.3801   45.0229  -11.3563 H           1 MOL       0.0454
     51 H16        32.8767   45.8120  -10.9139 H           1 MOL       0.0454
     52 H17        30.8290   45.3501  -12.5794 H           1 MOL       0.0557
     53 H18        34.9029   45.0866  -13.6632 H           1 MOL       0.0557
     54 H19        30.2460   45.6071  -14.9025 H           1 MOL       0.0599
     55 H20        34.3045   45.3771  -15.9759 H           1 MOL       0.0599
     56 H21        31.9695   45.6214  -16.6123 H           1 MOL       0.0559
     57 H22        30.4479   42.8304  -11.0637 H           1 MOL       0.1876
     58 H23        30.5896   42.1840  -13.7138 H           1 MOL       0.0749
     59 H24        30.0654   39.7053  -11.9895 H           1 MOL       0.0467
     60 H25        31.5410   39.9495  -12.8962 H           1 MOL       0.0467
     61 H26        31.2164   40.5438  -15.4730 H           1 MOL       0.0557
     62 H27        28.3918   38.4055  -13.1685 H           1 MOL       0.0557
     63 H28        30.3184   39.5539  -17.4769 H           1 MOL       0.0599
     64 H29        27.5179   37.4137  -15.1889 H           1 MOL       0.0599
     65 H30        28.4826   37.9719  -17.3447 H           1 MOL       0.0559
@<TRIPOS>BOND
     1    24    25   1
     2    25    28   1
     3    25    26   1
     4    26    27  ar
     5    26    35  ar
     6    28    29   1
     7    29    30  ar
     8    29    31  ar
     9    31    33  ar
    10    33    34  ar
    11    32    34  ar
    12    30    32  ar
    13     2     1   1
    14     3     2   1
    15     2     6   1
    16     3     4  ar
    17     3     5  ar
    18    13     3   1
    19     6     7   1
    20     7     8  ar
    21     7     9  ar
    22     8    10  ar
    23     9    11  ar
    24    10    12  ar
    25    11    12  ar
    26    14    13   1
    27    14    15   1
    28    22    14   1
    29    15    16   1
    30    16    17  ar
    31    16    18  ar
    32    17    19  ar
    33    18    20  ar
    34    19    21  ar
    35    20    21  ar
    36    22    23   2
    37    22    24  am
    38     1    36   1
    39     1    37   1
    40     1    38   1
    41     2    39   1
    42     6    40   1
    43     6    41   1
    44     8    42   1
    45     9    43   1
    46    10    44   1
    47    11    45   1
    48    12    46   1
    49    13    47   1
    50    13    48   1
    51    14    49   1
    52    15    50   1
    53    15    51   1
    54    17    52   1
    55    18    53   1
    56    19    54   1
    57    20    55   1
    58    21    56   1
    59    24    57   1
    60    25    58   1
    61    28    59   1
    62    28    60   1
    63    30    61   1
    64    31    62   1
    65    32    63   1
    66    33    64   1
    67    34    65   1
@<TRIPOS>SUBSTRUCTURE
     1  MOL      2

