@<TRIPOS>MOLECULE
1os0_ligand_086
    65    67
SMALL
GAST_HUCK
****
This file was generated by PARSER (from files_GN.cpp)

@<TRIPOS>ATOM
      1 N          36.4016   40.2685   -7.7936 N.4         1 MOL       0.2351
      2 CA         35.0083   40.4585   -7.3624 C.3         1 MOL       0.0466
      3 P          34.4776   41.9945   -7.7750 P.3         1 MOL       0.0403
      4 O1P        33.1777   42.2300   -7.1993 O.co2       1 MOL      -0.6153
      5 O2P        35.3656   42.9822   -7.2123 O.co2       1 MOL      -0.6153
      6 CB         34.8616   40.0437   -5.8620 C.3         1 MOL       0.0407
      7 CG         35.6776   40.8097   -4.8727 C.ar        1 MOL      -0.0360
      8 CD1        36.9119   40.3066   -4.3933 C.ar        1 MOL      -0.0601
      9 CD2        35.2176   42.0485   -4.3655 C.ar        1 MOL      -0.0601
     10 CE1        37.6716   41.0323   -3.4551 C.ar        1 MOL      -0.0686
     11 CE2        35.9791   42.7802   -3.4358 C.ar        1 MOL      -0.0686
     12 CZ         37.2058   42.2699   -2.9773 C.ar        1 MOL      -0.0687
     13 CM         34.4120   42.2847   -9.4252 C.3         1 MOL       0.0402
     14 CA         33.0592   42.0347  -10.1713 C.3         1 MOL       0.0742
     15 CB         33.1012   42.5923  -11.6433 C.3         1 MOL       0.0021
     16 CG         32.5593   43.9714  -11.7884 C.ar        1 MOL      -0.0405
     17 CD1        33.3885   45.1042  -11.6174 C.ar        1 MOL      -0.0602
     18 CD2        31.1924   44.1663  -12.1042 C.ar        1 MOL      -0.0602
     19 CE1        32.8605   46.4009  -11.7513 C.ar        1 MOL      -0.0686
     20 CE2        30.6684   45.4623  -12.2444 C.ar        1 MOL      -0.0686
     21 CZ         31.4999   46.5790  -12.0536 C.ar        1 MOL      -0.0687
     22 C          32.6612   40.6237  -10.1757 C.2         1 MOL       0.1844
     23 O          31.5984   40.3020   -9.6576 O.2         1 MOL      -0.3964
     24 N          33.3940   39.7355  -10.8387 N.am        1 MOL      -0.2692
     25 CA         33.0488   38.3672  -11.1156 C.3         1 MOL       0.1038
     26 C          34.2580   37.5136  -11.0911 C.2         1 MOL       0.0621
     27 O          34.1361   36.1735  -11.2218 O.co2       1 MOL      -0.5664
     28 CB         32.2180   38.2406  -12.4397 C.3         1 MOL       0.0159
     29 CG         32.5831   39.1576  -13.5610 C.ar        1 MOL      -0.0392
     30 CD1        31.6384   40.0688  -14.0970 C.ar        1 MOL      -0.0602
     31 CD2        33.8920   39.1559  -14.0971 C.ar        1 MOL      -0.0602
     32 CE1        32.0130   41.0036  -15.0807 C.ar        1 MOL      -0.0686
     33 CE2        34.2680   40.0909  -15.0810 C.ar        1 MOL      -0.0686
     34 CZ         33.3347   41.0286  -15.5568 C.ar        1 MOL      -0.0687
     35 OXT        35.4656   37.9845  -10.7042 O.co2       1 MOL      -0.5664
     36 H1         36.6837   39.2999   -7.6277 H           1 MOL       0.2014
     37 H2         37.0172   40.8896   -7.2678 H           1 MOL       0.2014
     38 H3         36.5039   40.4877   -8.7857 H           1 MOL       0.2014
     39 H4         34.4076   39.7532   -7.9410 H           1 MOL       0.1089
     40 H5         35.1212   38.9831   -5.7863 H           1 MOL       0.0499
     41 H6         33.8086   40.0973   -5.5756 H           1 MOL       0.0499
     42 H7         37.2669   39.4069   -4.7235 H           1 MOL       0.0557
     43 H8         34.3253   42.4327   -4.6784 H           1 MOL       0.0557
     44 H9         38.5615   40.6593   -3.1172 H           1 MOL       0.0599
     45 H10        35.6392   43.6797   -3.0890 H           1 MOL       0.0599
     46 H11        37.7548   42.7954   -2.2939 H           1 MOL       0.0559
     47 H12        35.1915   41.6954   -9.9063 H           1 MOL       0.0496
     48 H13        34.6807   43.3336   -9.5698 H           1 MOL       0.0496
     49 H14        32.2855   42.5998   -9.6331 H           1 MOL       0.0576
     50 H15        32.5219   41.9506  -12.3097 H           1 MOL       0.0454
     51 H16        34.1212   42.5536  -12.0384 H           1 MOL       0.0454
     52 H17        34.3813   44.9919  -11.3990 H           1 MOL       0.0557
     53 H18        30.5694   43.3646  -12.2347 H           1 MOL       0.0557
     54 H19        33.4644   47.2149  -11.6291 H           1 MOL       0.0599
     55 H20        29.6838   45.5894  -12.4847 H           1 MOL       0.0599
     56 H21        31.1173   47.5211  -12.1329 H           1 MOL       0.0559
     57 H22        34.2000   40.0717  -11.2646 H           1 MOL       0.1876
     58 H23        32.4274   37.9829  -10.3016 H           1 MOL       0.0749
     59 H24        31.1720   38.4076  -12.1706 H           1 MOL       0.0467
     60 H25        32.2638   37.2163  -12.8150 H           1 MOL       0.0467
     61 H26        30.6765   40.0862  -13.7497 H           1 MOL       0.0557
     62 H27        34.5894   38.4886  -13.7606 H           1 MOL       0.0557
     63 H28        31.3299   41.6777  -15.4333 H           1 MOL       0.0599
     64 H29        35.2270   40.1019  -15.4338 H           1 MOL       0.0599
     65 H30        33.6173   41.7285  -16.2469 H           1 MOL       0.0559
@<TRIPOS>BOND
     1    24    25   1
     2    25    28   1
     3    25    26   1
     4    26    27  ar
     5    26    35  ar
     6    28    29   1
     7    29    30  ar
     8    29    31  ar
     9    31    33  ar
    10    33    34  ar
    11    32    34  ar
    12    30    32  ar
    13     2     1   1
    14     3     2   1
    15     2     6   1
    16     3     4  ar
    17     3     5  ar
    18    13     3   1
    19     6     7   1
    20     7     8  ar
    21     7     9  ar
    22     8    10  ar
    23     9    11  ar
    24    10    12  ar
    25    11    12  ar
    26    14    13   1
    27    14    15   1
    28    22    14   1
    29    15    16   1
    30    16    17  ar
    31    16    18  ar
    32    17    19  ar
    33    18    20  ar
    34    19    21  ar
    35    20    21  ar
    36    22    23   2
    37    22    24  am
    38     1    36   1
    39     1    37   1
    40     1    38   1
    41     2    39   1
    42     6    40   1
    43     6    41   1
    44     8    42   1
    45     9    43   1
    46    10    44   1
    47    11    45   1
    48    12    46   1
    49    13    47   1
    50    13    48   1
    51    14    49   1
    52    15    50   1
    53    15    51   1
    54    17    52   1
    55    18    53   1
    56    19    54   1
    57    20    55   1
    58    21    56   1
    59    24    57   1
    60    25    58   1
    61    28    59   1
    62    28    60   1
    63    30    61   1
    64    31    62   1
    65    32    63   1
    66    33    64   1
    67    34    65   1
@<TRIPOS>SUBSTRUCTURE
     1  MOL      2

