@<TRIPOS>MOLECULE
1oyt_ligand_039
    55    59
SMALL
GAST_HUCK
****
This file was generated by PARSER (from files_GN.cpp)

@<TRIPOS>ATOM
      1 O21        22.1549  -17.1374   22.7619 O.2         1 FSN      -0.3850
      2 C20        22.5453  -16.4584   23.7022 C.2         1 FSN       0.2221
      3 N19        23.8063  -16.1416   23.9384 N.am        1 FSN      -0.1734
      4 C23        24.9331  -16.4391   23.0790 C.3         1 FSN       0.0905
      5 C24        25.8429  -17.4712   23.6440 C.ar        1 FSN      -0.0199
      6 C32        25.3103  -18.6162   24.2825 C.ar        1 FSN      -0.0597
      7 C31        26.1672  -19.5931   24.8215 C.ar        1 FSN      -0.0348
      8 C30        27.5632  -19.4339   24.7399 C.ar        1 FSN       0.1248
      9 F29        28.3564  -20.3386   25.2447 F           1 FSN      -0.1893
     10 C26        28.1033  -18.2993   24.1082 C.ar        1 FSN      -0.0348
     11 C25        27.2473  -17.3282   23.5583 C.ar        1 FSN      -0.0597
     12 C17        23.8798  -15.4816   25.0828 C.2         1 FSN       0.2202
     13 O18        24.9172  -15.0658   25.5785 O.2         1 FSN      -0.3852
     14 C16        22.6021  -15.3450   25.7389 C.3         1 FSN       0.1237
     15 C15        22.1332  -13.8909   26.0198 C.3         1 FSN       0.0043
     16 N11        20.8156  -13.7338   25.3650 N.4         1 FSN       0.2554
     17 C12        19.7840  -13.6676   26.4231 C.3         1 FSN      -0.0294
     18 C13        20.4948  -12.9106   27.5500 C.3         1 FSN      -0.0072
     19 C14        21.9163  -13.4950   27.5030 C.3         1 FSN      -0.0022
     20 C10        20.6660  -14.7645   24.2932 C.3         1 FSN       0.0362
     21 C7         20.8507  -14.2003   22.9099 C.ar        1 FSN       0.0072
     22 C8         21.6223  -13.0462   22.6374 C.ar        1 FSN      -0.0548
     23 C9         21.7420  -12.5356   21.3367 C.ar        1 FSN      -0.0632
     24 C4         21.1407  -13.1808   20.2294 C.ar        1 FSN       0.0188
     25 C5         20.3888  -14.3545   20.4992 C.ar        1 FSN      -0.0632
     26 C6         20.2331  -14.8436   21.8104 C.ar        1 FSN      -0.0548
     27 C3         21.3001  -12.6842   18.9274 C.cat       1 FSN       0.2318
     28 N1         21.0036  -13.3712   17.8915 N.pl3       1 FSN      -0.2729
     29 N2         21.7699  -11.5226   18.6822 N.pl3       1 FSN      -0.2729
     30 C22        21.6332  -15.9281   24.6944 C.3         1 FSN       0.1316
     31 H1         25.4762  -15.5076   22.9093 H           1 FSN       0.0733
     32 H2         24.6116  -16.7862   22.0913 H           1 FSN       0.0733
     33 H3         24.2991  -18.7454   24.3493 H           1 FSN       0.0548
     34 H4         25.7706  -20.4193   25.2742 H           1 FSN       0.0587
     35 H5         29.1179  -18.1744   24.0448 H           1 FSN       0.0587
     36 H6         27.6599  -16.5112   23.1024 H           1 FSN       0.0548
     37 H7         22.5994  -15.9632   26.6408 H           1 FSN       0.0632
     38 H8         22.8202  -13.1687   25.5665 H           1 FSN       0.0882
     39 H9         20.7951  -12.8124   24.9396 H           1 FSN       0.2057
     40 H10        19.4812  -14.6592   26.7625 H           1 FSN       0.0815
     41 H11        18.9126  -13.1150   26.0649 H           1 FSN       0.0815
     42 H12        20.0060  -13.0729   28.5146 H           1 FSN       0.0319
     43 H13        20.5186  -11.8370   27.3322 H           1 FSN       0.0319
     44 H14        22.6501  -12.7610   27.8388 H           1 FSN       0.0323
     45 H15        21.9753  -14.3599   28.1627 H           1 FSN       0.0323
     46 H16        19.6394  -15.1487   24.3303 H           1 FSN       0.1048
     47 H17        22.1159  -12.5492   23.3734 H           1 FSN       0.0559
     48 H18        22.3012  -11.6919   21.2127 H           1 FSN       0.0599
     49 H19        19.9264  -14.8682   19.7483 H           1 FSN       0.0599
     50 H20        19.6698  -15.6852   21.9595 H           1 FSN       0.0559
     51 H21        21.1391  -13.0172   17.0356 H           1 FSN       0.3180
     52 H22        20.6804  -14.2395   17.9838 H           1 FSN       0.3180
     53 H23        22.0275  -10.9591   19.3816 H           1 FSN       0.3180
     54 H24        21.8720  -11.2297   17.7987 H           1 FSN       0.3180
     55 H25        21.0607  -16.7539   25.1373 H           1 FSN       0.0654
@<TRIPOS>BOND
     1     1     2   2
     2     2     3  am
     3     2    30   1
     4     3     4   1
     5     3    12  am
     6     4     5   1
     7     5     6  ar
     8     5    11  ar
     9     6     7  ar
    10     7     8  ar
    11     8     9   1
    12     8    10  ar
    13    10    11  ar
    14    12    13   2
    15    12    14   1
    16    14    15   1
    17    14    30   1
    18    15    16   1
    19    15    19   1
    20    16    17   1
    21    16    20   1
    22    17    18   1
    23    18    19   1
    24    20    21   1
    25    20    30   1
    26    21    22  ar
    27    21    26  ar
    28    22    23  ar
    29    23    24  ar
    30    24    25  ar
    31    24    27   1
    32    25    26  ar
    33    27    28  ar
    34    27    29  ar
    35     4    31   1
    36     4    32   1
    37     6    33   1
    38     7    34   1
    39    10    35   1
    40    11    36   1
    41    14    37   1
    42    15    38   1
    43    16    39   1
    44    17    40   1
    45    17    41   1
    46    18    42   1
    47    18    43   1
    48    19    44   1
    49    19    45   1
    50    20    46   1
    51    22    47   1
    52    23    48   1
    53    25    49   1
    54    26    50   1
    55    28    51   1
    56    28    52   1
    57    29    53   1
    58    29    54   1
    59    30    55   1
@<TRIPOS>SUBSTRUCTURE
     1  FSN      2

