@<TRIPOS>MOLECULE
1oyt_ligand_037
    55    59
SMALL
GAST_HUCK
****
This file was generated by PARSER (from files_GN.cpp)

@<TRIPOS>ATOM
      1 O21        13.4667  -14.1050    7.2048 O.2         1 FSN      -0.3850
      2 C20        12.6653  -14.2571    8.1183 C.2         1 FSN       0.2221
      3 N19        12.3750  -15.4076    8.7011 N.am        1 FSN      -0.1734
      4 C23        12.9748  -16.6715    8.3481 C.3         1 FSN       0.0905
      5 C24        14.3305  -16.8188    8.9444 C.ar        1 FSN      -0.0199
      6 C32        14.4669  -17.1692   10.3077 C.ar        1 FSN      -0.0597
      7 C31        15.7396  -17.3339   10.8847 C.ar        1 FSN      -0.0348
      8 C30        16.8959  -17.1333   10.1085 C.ar        1 FSN       0.1248
      9 F29        18.0769  -17.2800   10.6453 F           1 FSN      -0.1893
     10 C26        16.7753  -16.7695    8.7545 C.ar        1 FSN      -0.0348
     11 C25        15.5009  -16.6166    8.1755 C.ar        1 FSN      -0.0597
     12 C17        11.4489  -15.2092    9.6244 C.2         1 FSN       0.2202
     13 O18        10.9617  -16.0785   10.3343 O.2         1 FSN      -0.3852
     14 C16        11.0138  -13.8344    9.6990 C.3         1 FSN       0.1237
     15 C15        11.2400  -13.1024   11.0542 C.3         1 FSN       0.0043
     16 N11        11.9934  -11.8670   10.7331 N.4         1 FSN       0.2554
     17 C12        11.0112  -10.7537   10.7817 C.3         1 FSN      -0.0294
     18 C13        10.0841  -11.1352   11.9433 C.3         1 FSN      -0.0072
     19 C14         9.9713  -12.6635   11.8335 C.3         1 FSN      -0.0022
     20 C10        12.7426  -12.0637    9.4548 C.3         1 FSN       0.0362
     21 C7         14.2013  -12.3381    9.7085 C.ar        1 FSN       0.0072
     22 C8         14.6330  -13.3710   10.5703 C.ar        1 FSN      -0.0548
     23 C9         15.9946  -13.5798   10.8390 C.ar        1 FSN      -0.0632
     24 C4         17.0053  -12.7971   10.2272 C.ar        1 FSN       0.0188
     25 C5         16.5738  -11.7903    9.3227 C.ar        1 FSN      -0.0632
     26 C6         15.2047  -11.5720    9.0671 C.ar        1 FSN      -0.0548
     27 C3         18.3678  -13.0165   10.5062 C.cat       1 FSN       0.2318
     28 N1         18.7618  -13.7712   11.4603 N.pl3       1 FSN      -0.2729
     29 N2         19.3080  -12.4756    9.8303 N.pl3       1 FSN      -0.2729
     30 C22        11.9392  -13.1491    8.6775 C.3         1 FSN       0.1316
     31 H1         13.0162  -16.7562    7.2576 H           1 FSN       0.0733
     32 H2         12.3555  -17.5121    8.6784 H           1 FSN       0.0733
     33 H3         13.6393  -17.3183   10.8878 H           1 FSN       0.0548
     34 H4         15.8201  -17.5999   11.8686 H           1 FSN       0.0587
     35 H5         17.6129  -16.6177    8.1883 H           1 FSN       0.0587
     36 H6         15.4347  -16.3520    7.1894 H           1 FSN       0.0548
     37 H7          9.9710  -13.7654    9.3652 H           1 FSN       0.0632
     38 H8         11.8484  -13.7167   11.7237 H           1 FSN       0.0882
     39 H9         12.6648  -11.6983   11.4876 H           1 FSN       0.2057
     40 H10        10.4322  -10.6788    9.8547 H           1 FSN       0.0815
     41 H11        11.5091   -9.7993   10.9700 H           1 FSN       0.0815
     42 H12         9.1115  -10.6419   11.8707 H           1 FSN       0.0319
     43 H13        10.5535  -10.8667   12.8924 H           1 FSN       0.0319
     44 H14         9.9496  -13.1095   12.8312 H           1 FSN       0.0323
     45 H15         9.0494  -12.9381   11.3156 H           1 FSN       0.0323
     46 H16        12.6738  -11.1442    8.8633 H           1 FSN       0.1048
     47 H17        13.9606  -13.9911   11.0151 H           1 FSN       0.0559
     48 H18        16.2396  -14.3244   11.4937 H           1 FSN       0.0599
     49 H19        17.2472  -11.1875    8.8430 H           1 FSN       0.0599
     50 H20        14.9488  -10.8442    8.3941 H           1 FSN       0.0559
     51 H21        19.6755  -13.8913   11.6195 H           1 FSN       0.3180
     52 H22        18.1436  -14.1997   12.0162 H           1 FSN       0.3180
     53 H23        19.1124  -11.9121    9.1124 H           1 FSN       0.3180
     54 H24        20.2001  -12.6466   10.0511 H           1 FSN       0.3180
     55 H25        11.3354  -12.6826    7.8889 H           1 FSN       0.0654
@<TRIPOS>BOND
     1     1     2   2
     2     2     3  am
     3     2    30   1
     4     3     4   1
     5     3    12  am
     6     4     5   1
     7     5     6  ar
     8     5    11  ar
     9     6     7  ar
    10     7     8  ar
    11     8     9   1
    12     8    10  ar
    13    10    11  ar
    14    12    13   2
    15    12    14   1
    16    14    15   1
    17    14    30   1
    18    15    16   1
    19    15    19   1
    20    16    17   1
    21    16    20   1
    22    17    18   1
    23    18    19   1
    24    20    21   1
    25    20    30   1
    26    21    22  ar
    27    21    26  ar
    28    22    23  ar
    29    23    24  ar
    30    24    25  ar
    31    24    27   1
    32    25    26  ar
    33    27    28  ar
    34    27    29  ar
    35     4    31   1
    36     4    32   1
    37     6    33   1
    38     7    34   1
    39    10    35   1
    40    11    36   1
    41    14    37   1
    42    15    38   1
    43    16    39   1
    44    17    40   1
    45    17    41   1
    46    18    42   1
    47    18    43   1
    48    19    44   1
    49    19    45   1
    50    20    46   1
    51    22    47   1
    52    23    48   1
    53    25    49   1
    54    26    50   1
    55    28    51   1
    56    28    52   1
    57    29    53   1
    58    29    54   1
    59    30    55   1
@<TRIPOS>SUBSTRUCTURE
     1  FSN      2

