@<TRIPOS>MOLECULE
1oyt_ligand_016
    55    59
SMALL
GAST_HUCK
****
This file was generated by PARSER (from files_GN.cpp)

@<TRIPOS>ATOM
      1 O21        24.8687  -16.5232   24.5997 O.2         1 FSN      -0.3850
      2 C20        23.8997  -16.8103   23.9088 C.2         1 FSN       0.2221
      3 N19        22.8757  -16.0066   23.6734 N.am        1 FSN      -0.1734
      4 C23        22.8164  -14.6394   24.1648 C.3         1 FSN       0.0905
      5 C24        21.6125  -13.8475   23.7817 C.ar        1 FSN      -0.0199
      6 C32        20.4809  -13.7998   24.6306 C.ar        1 FSN      -0.0597
      7 C31        19.2881  -13.1842   24.2062 C.ar        1 FSN      -0.0348
      8 C30        19.2130  -12.5954   22.9303 C.ar        1 FSN       0.1248
      9 F29        18.0947  -12.0636   22.5177 F           1 FSN      -0.1893
     10 C26        20.3412  -12.6074   22.0886 C.ar        1 FSN      -0.0348
     11 C25        21.5315  -13.2296   22.5107 C.ar        1 FSN      -0.0597
     12 C17        21.9686  -16.6799   22.9806 C.2         1 FSN       0.2202
     13 O18        20.8603  -16.2689   22.6648 O.2         1 FSN      -0.3852
     14 C16        22.3555  -18.0394   22.6832 C.3         1 FSN       0.1237
     15 C15        22.5809  -18.3453   21.1740 C.3         1 FSN       0.0043
     16 N11        24.0287  -18.1932   20.9549 N.4         1 FSN       0.2554
     17 C12        24.3629  -18.9865   19.7478 C.3         1 FSN      -0.0294
     18 C13        23.3679  -20.1665   19.7164 C.3         1 FSN      -0.0072
     19 C14        22.2400  -19.7823   20.6982 C.3         1 FSN      -0.0022
     20 C10        24.7089  -18.5880   22.2228 C.3         1 FSN       0.0362
     21 C7         26.1254  -18.1066   22.3121 C.ar        1 FSN       0.0072
     22 C8         26.4698  -16.7707   22.0088 C.ar        1 FSN      -0.0548
     23 C9         27.7976  -16.3206   22.1092 C.ar        1 FSN      -0.0632
     24 C4         28.8511  -17.1922   22.4905 C.ar        1 FSN       0.0188
     25 C5         28.4938  -18.5334   22.7923 C.ar        1 FSN      -0.0632
     26 C6         27.1636  -18.9805   22.7053 C.ar        1 FSN      -0.0548
     27 C3         30.1874  -16.7542   22.5513 C.cat       1 FSN       0.2318
     28 N1         30.5543  -15.5898   22.1640 N.pl3       1 FSN      -0.2729
     29 N2         31.1403  -17.4817   22.9847 N.pl3       1 FSN      -0.2729
     30 C22        23.7397  -18.1341   23.3525 C.3         1 FSN       0.1316
     31 H1         23.7021  -14.1005   23.8144 H           1 FSN       0.0733
     32 H2         22.8934  -14.6699   25.2559 H           1 FSN       0.0733
     33 H3         20.5033  -14.2524   25.5479 H           1 FSN       0.0548
     34 H4         18.4681  -13.1885   24.8186 H           1 FSN       0.0587
     35 H5         20.2916  -12.1792   21.1601 H           1 FSN       0.0587
     36 H6         22.3277  -13.2584   21.8699 H           1 FSN       0.0548
     37 H7         21.6391  -18.7327   23.1359 H           1 FSN       0.0632
     38 H8         22.0481  -17.6306   20.5351 H           1 FSN       0.0882
     39 H9         24.2030  -17.1999   20.7798 H           1 FSN       0.2057
     40 H10        25.3988  -19.3382   19.7534 H           1 FSN       0.0815
     41 H11        24.2263  -18.3559   18.8656 H           1 FSN       0.0815
     42 H12        23.8597  -21.0869   20.0445 H           1 FSN       0.0319
     43 H13        22.9806  -20.3236   18.7062 H           1 FSN       0.0319
     44 H14        21.2623  -19.8089   20.2087 H           1 FSN       0.0323
     45 H15        22.2266  -20.4859   21.5357 H           1 FSN       0.0323
     46 H16        24.7161  -19.6851   22.2689 H           1 FSN       0.1048
     47 H17        25.7503  -16.1053   21.7234 H           1 FSN       0.0559
     48 H18        27.9783  -15.3368   21.8964 H           1 FSN       0.0599
     49 H19        29.2013  -19.2149   23.0746 H           1 FSN       0.0599
     50 H20        26.9578  -19.9557   22.9370 H           1 FSN       0.0559
     51 H21        31.4555  -15.3461   22.2135 H           1 FSN       0.3180
     52 H22        29.9341  -14.9823   21.8233 H           1 FSN       0.3180
     53 H23        30.9796  -18.3492   23.2926 H           1 FSN       0.3180
     54 H24        32.0158  -17.1500   22.9966 H           1 FSN       0.3180
     55 H25        23.7291  -18.8653   24.1678 H           1 FSN       0.0654
@<TRIPOS>BOND
     1     1     2   2
     2     2     3  am
     3     2    30   1
     4     3     4   1
     5     3    12  am
     6     4     5   1
     7     5     6  ar
     8     5    11  ar
     9     6     7  ar
    10     7     8  ar
    11     8     9   1
    12     8    10  ar
    13    10    11  ar
    14    12    13   2
    15    12    14   1
    16    14    15   1
    17    14    30   1
    18    15    16   1
    19    15    19   1
    20    16    17   1
    21    16    20   1
    22    17    18   1
    23    18    19   1
    24    20    21   1
    25    20    30   1
    26    21    22  ar
    27    21    26  ar
    28    22    23  ar
    29    23    24  ar
    30    24    25  ar
    31    24    27   1
    32    25    26  ar
    33    27    28  ar
    34    27    29  ar
    35     4    31   1
    36     4    32   1
    37     6    33   1
    38     7    34   1
    39    10    35   1
    40    11    36   1
    41    14    37   1
    42    15    38   1
    43    16    39   1
    44    17    40   1
    45    17    41   1
    46    18    42   1
    47    18    43   1
    48    19    44   1
    49    19    45   1
    50    20    46   1
    51    22    47   1
    52    23    48   1
    53    25    49   1
    54    26    50   1
    55    28    51   1
    56    28    52   1
    57    29    53   1
    58    29    54   1
    59    30    55   1
@<TRIPOS>SUBSTRUCTURE
     1  FSN      2

