@<TRIPOS>MOLECULE
1oyt_ligand_036
    55    59
SMALL
GAST_HUCK
****
This file was generated by PARSER (from files_GN.cpp)

@<TRIPOS>ATOM
      1 O21        22.9173  -18.7020    8.2054 O.2         1 FSN      -0.3850
      2 C20        22.6677  -18.7044    9.4082 C.2         1 FSN       0.2221
      3 N19        23.5321  -18.9434   10.3737 N.am        1 FSN      -0.1734
      4 C23        24.9719  -19.0190   10.2249 C.3         1 FSN       0.0905
      5 C24        25.5104  -20.3800   10.4893 C.ar        1 FSN      -0.0199
      6 C32        25.8884  -20.7683   11.7985 C.ar        1 FSN      -0.0597
      7 C31        26.3527  -22.0694   12.0564 C.ar        1 FSN      -0.0348
      8 C30        26.4819  -22.9942   11.0050 C.ar        1 FSN       0.1248
      9 F29        26.9017  -24.2046   11.2437 F           1 FSN      -0.1893
     10 C26        26.1385  -22.6117    9.6943 C.ar        1 FSN      -0.0348
     11 C25        25.6458  -21.3182    9.4413 C.ar        1 FSN      -0.0597
     12 C17        22.9013  -18.9361   11.5374 C.2         1 FSN       0.2202
     13 O18        23.4241  -19.0507   12.6346 O.2         1 FSN      -0.3852
     14 C16        21.4835  -18.7364   11.3876 C.3         1 FSN       0.1237
     15 C15        20.8857  -17.5213   12.1466 C.3         1 FSN       0.0043
     16 N11        20.2222  -16.6671   11.1404 N.4         1 FSN       0.2554
     17 C12        18.7629  -16.8265   11.3208 C.3         1 FSN      -0.0294
     18 C13        18.6073  -16.9895   12.8395 C.3         1 FSN      -0.0072
     19 C14        19.8154  -17.8575   13.2230 C.3         1 FSN      -0.0022
     20 C10        20.7873  -16.9558    9.7926 C.3         1 FSN       0.0362
     21 C7         21.6363  -15.7833    9.3758 C.ar        1 FSN       0.0072
     22 C8         23.0442  -15.7622    9.4692 C.ar        1 FSN      -0.0548
     23 C9         23.8044  -14.6996    8.9402 C.ar        1 FSN      -0.0632
     24 C4         23.1870  -13.5558    8.3684 C.ar        1 FSN       0.0188
     25 C5         21.7707  -13.5252    8.4019 C.ar        1 FSN      -0.0632
     26 C6         21.0135  -14.6131    8.8810 C.ar        1 FSN      -0.0548
     27 C3         23.9379  -12.5120    7.7845 C.cat       1 FSN       0.2318
     28 N1         23.4150  -11.5122    7.1804 N.pl3       1 FSN      -0.2729
     29 N2         25.2168  -12.4909    7.8052 N.pl3       1 FSN      -0.2729
     30 C22        21.3400  -18.4223    9.8907 C.3         1 FSN       0.1316
     31 H1         25.4372  -18.2960   10.8995 H           1 FSN       0.0733
     32 H2         25.2638  -18.6933    9.2228 H           1 FSN       0.0733
     33 H3         25.8352  -20.1015   12.5717 H           1 FSN       0.0548
     34 H4         26.5932  -22.3413   13.0119 H           1 FSN       0.0587
     35 H5         26.2346  -23.2771    8.9271 H           1 FSN       0.0587
     36 H6         25.3987  -21.0603    8.4814 H           1 FSN       0.0548
     37 H7         20.9673  -19.6734   11.6288 H           1 FSN       0.0632
     38 H8         21.6788  -16.9232   12.6071 H           1 FSN       0.0882
     39 H9         20.4325  -15.6947   11.3837 H           1 FSN       0.2057
     40 H10        18.3834  -17.7150   10.8059 H           1 FSN       0.0815
     41 H11        18.2275  -15.9445   10.9605 H           1 FSN       0.0815
     42 H12        17.6587  -17.4657   13.1044 H           1 FSN       0.0319
     43 H13        18.6752  -16.0143   13.3289 H           1 FSN       0.0319
     44 H14        20.1725  -17.6191   14.2286 H           1 FSN       0.0323
     45 H15        19.5193  -18.9087   13.2052 H           1 FSN       0.0323
     46 H16        19.9817  -17.0088    9.0509 H           1 FSN       0.1048
     47 H17        23.5411  -16.5518    9.8870 H           1 FSN       0.0559
     48 H18        24.8233  -14.8056    8.9600 H           1 FSN       0.0599
     49 H19        21.2604  -12.7174    8.0500 H           1 FSN       0.0599
     50 H20        19.9931  -14.5627    8.8388 H           1 FSN       0.0559
     51 H21        23.9644  -10.8524    6.8046 H           1 FSN       0.3180
     52 H22        22.4886  -11.4323    7.1006 H           1 FSN       0.3180
     53 H23        25.6914  -13.1728    8.2289 H           1 FSN       0.3180
     54 H24        25.6849  -11.7877    7.4020 H           1 FSN       0.3180
     55 H25        20.6272  -19.1226    9.4404 H           1 FSN       0.0654
@<TRIPOS>BOND
     1     1     2   2
     2     2     3  am
     3     2    30   1
     4     3     4   1
     5     3    12  am
     6     4     5   1
     7     5     6  ar
     8     5    11  ar
     9     6     7  ar
    10     7     8  ar
    11     8     9   1
    12     8    10  ar
    13    10    11  ar
    14    12    13   2
    15    12    14   1
    16    14    15   1
    17    14    30   1
    18    15    16   1
    19    15    19   1
    20    16    17   1
    21    16    20   1
    22    17    18   1
    23    18    19   1
    24    20    21   1
    25    20    30   1
    26    21    22  ar
    27    21    26  ar
    28    22    23  ar
    29    23    24  ar
    30    24    25  ar
    31    24    27   1
    32    25    26  ar
    33    27    28  ar
    34    27    29  ar
    35     4    31   1
    36     4    32   1
    37     6    33   1
    38     7    34   1
    39    10    35   1
    40    11    36   1
    41    14    37   1
    42    15    38   1
    43    16    39   1
    44    17    40   1
    45    17    41   1
    46    18    42   1
    47    18    43   1
    48    19    44   1
    49    19    45   1
    50    20    46   1
    51    22    47   1
    52    23    48   1
    53    25    49   1
    54    26    50   1
    55    28    51   1
    56    28    52   1
    57    29    53   1
    58    29    54   1
    59    30    55   1
@<TRIPOS>SUBSTRUCTURE
     1  FSN      2

