@<TRIPOS>MOLECULE
1oyt_ligand_056
    55    59
SMALL
GAST_HUCK
****
This file was generated by PARSER (from files_GN.cpp)

@<TRIPOS>ATOM
      1 O21        14.0517  -12.0000   25.5885 O.2         1 FSN      -0.3850
      2 C20        13.2714  -12.7668   25.0489 C.2         1 FSN       0.2221
      3 N19        12.1210  -13.1885   25.5616 N.am        1 FSN      -0.1734
      4 C23        11.5582  -12.7882   26.8492 C.3         1 FSN       0.0905
      5 C24        12.3305  -13.2799   28.0338 C.ar        1 FSN      -0.0199
      6 C32        12.0304  -14.5286   28.6400 C.ar        1 FSN      -0.0597
      7 C31        12.7819  -15.0025   29.7351 C.ar        1 FSN      -0.0348
      8 C30        13.8444  -14.2387   30.2516 C.ar        1 FSN       0.1248
      9 F29        14.5157  -14.6517   31.2907 F           1 FSN      -0.1893
     10 C26        14.1704  -13.0139   29.6459 C.ar        1 FSN      -0.0348
     11 C25        13.4104  -12.5312   28.5663 C.ar        1 FSN      -0.0597
     12 C17        11.5927  -14.0531   24.7188 C.2         1 FSN       0.2202
     13 O18        10.5584  -14.6736   24.9532 O.2         1 FSN      -0.3852
     14 C16        12.4166  -14.2919   23.5469 C.3         1 FSN       0.1237
     15 C15        11.8139  -13.9406   22.1641 C.3         1 FSN       0.0043
     16 N11        12.6888  -12.9319   21.5188 N.4         1 FSN       0.2554
     17 C12        13.3657  -13.5973   20.3850 C.3         1 FSN      -0.0294
     18 C13        12.3131  -14.5872   19.8735 C.3         1 FSN      -0.0072
     19 C14        11.6826  -15.1232   21.1680 C.3         1 FSN      -0.0022
     20 C10        13.5602  -12.2931   22.5383 C.3         1 FSN       0.0362
     21 C7         13.1201  -10.8928   22.8450 C.ar        1 FSN       0.0072
     22 C8         11.7758  -10.5857   23.1577 C.ar        1 FSN      -0.0548
     23 C9         11.3857   -9.2760   23.4800 C.ar        1 FSN      -0.0632
     24 C4         12.3285   -8.2200   23.5454 C.ar        1 FSN       0.0188
     25 C5         13.6788   -8.5384   23.2388 C.ar        1 FSN      -0.0632
     26 C6         14.0638   -9.8433   22.8887 C.ar        1 FSN      -0.0548
     27 C3         11.9377   -6.9146   23.8726 C.cat       1 FSN       0.2318
     28 N1         10.7187   -6.5358   23.9013 N.pl3       1 FSN      -0.2729
     29 N2         12.7900   -6.0049   24.1487 N.pl3       1 FSN      -0.2729
     30 C22        13.5568  -13.2900   23.7327 C.3         1 FSN       0.1316
     31 H1         10.5216  -13.1392   26.9390 H           1 FSN       0.0733
     32 H2         11.4902  -11.7006   26.8843 H           1 FSN       0.0733
     33 H3         11.2789  -15.1158   28.2678 H           1 FSN       0.0548
     34 H4         12.5665  -15.9150   30.1461 H           1 FSN       0.0587
     35 H5         14.9651  -12.4745   29.9951 H           1 FSN       0.0587
     36 H6         13.6629  -11.6254   28.1609 H           1 FSN       0.0548
     37 H7         12.8392  -15.2999   23.5710 H           1 FSN       0.0632
     38 H8         10.8372  -13.4722   22.2982 H           1 FSN       0.0882
     39 H9         12.0814  -12.2135   21.1209 H           1 FSN       0.2057
     40 H10        14.2625  -14.1427   20.7019 H           1 FSN       0.0815
     41 H11        13.6344  -12.8625   19.6229 H           1 FSN       0.0815
     42 H12        12.7594  -15.3840   19.2743 H           1 FSN       0.0319
     43 H13        11.5642  -14.0552   19.2786 H           1 FSN       0.0319
     44 H14        10.6381  -15.3987   21.0105 H           1 FSN       0.0323
     45 H15        12.2241  -16.0142   21.5012 H           1 FSN       0.0323
     46 H16        14.5936  -12.2456   22.1704 H           1 FSN       0.1048
     47 H17        11.0624  -11.3131   23.1604 H           1 FSN       0.0559
     48 H18        10.3935   -9.1095   23.6673 H           1 FSN       0.0599
     49 H19        14.4061   -7.8190   23.2458 H           1 FSN       0.0599
     50 H20        15.0506  -10.0238   22.6803 H           1 FSN       0.0559
     51 H21        10.5096   -5.6456   24.0934 H           1 FSN       0.3180
     52 H22        10.0308   -7.1360   23.7104 H           1 FSN       0.3180
     53 H23        13.6997   -6.2059   24.1525 H           1 FSN       0.3180
     54 H24        12.5054   -5.1380   24.3408 H           1 FSN       0.3180
     55 H25        14.5067  -13.8371   23.7180 H           1 FSN       0.0654
@<TRIPOS>BOND
     1     1     2   2
     2     2     3  am
     3     2    30   1
     4     3     4   1
     5     3    12  am
     6     4     5   1
     7     5     6  ar
     8     5    11  ar
     9     6     7  ar
    10     7     8  ar
    11     8     9   1
    12     8    10  ar
    13    10    11  ar
    14    12    13   2
    15    12    14   1
    16    14    15   1
    17    14    30   1
    18    15    16   1
    19    15    19   1
    20    16    17   1
    21    16    20   1
    22    17    18   1
    23    18    19   1
    24    20    21   1
    25    20    30   1
    26    21    22  ar
    27    21    26  ar
    28    22    23  ar
    29    23    24  ar
    30    24    25  ar
    31    24    27   1
    32    25    26  ar
    33    27    28  ar
    34    27    29  ar
    35     4    31   1
    36     4    32   1
    37     6    33   1
    38     7    34   1
    39    10    35   1
    40    11    36   1
    41    14    37   1
    42    15    38   1
    43    16    39   1
    44    17    40   1
    45    17    41   1
    46    18    42   1
    47    18    43   1
    48    19    44   1
    49    19    45   1
    50    20    46   1
    51    22    47   1
    52    23    48   1
    53    25    49   1
    54    26    50   1
    55    28    51   1
    56    28    52   1
    57    29    53   1
    58    29    54   1
    59    30    55   1
@<TRIPOS>SUBSTRUCTURE
     1  FSN      2

