@<TRIPOS>MOLECULE
1oyt_ligand_062
    55    59
SMALL
GAST_HUCK
****
This file was generated by PARSER (from files_GN.cpp)

@<TRIPOS>ATOM
      1 O21        12.7433  -11.7684   25.4485 O.2         1 FSN      -0.3850
      2 C20        12.6824  -10.5367   25.4265 C.2         1 FSN       0.2221
      3 N19        13.4755   -9.6993   26.0795 N.am        1 FSN      -0.1734
      4 C23        14.6556  -10.0000   26.9317 C.3         1 FSN       0.0905
      5 C24        14.4224  -11.0349   27.9911 C.ar        1 FSN      -0.0199
      6 C32        15.0141  -12.3173   27.8982 C.ar        1 FSN      -0.0597
      7 C31        14.7533  -13.3187   28.8528 C.ar        1 FSN      -0.0348
      8 C30        13.9247  -13.0376   29.9525 C.ar        1 FSN       0.1248
      9 F29        13.6788  -13.9627   30.8400 F           1 FSN      -0.1893
     10 C26        13.3884  -11.7497   30.1071 C.ar        1 FSN      -0.0348
     11 C25        13.6279  -10.7629   29.1271 C.ar        1 FSN      -0.0597
     12 C17        13.0037   -8.4571   25.8568 C.2         1 FSN       0.2202
     13 O18        13.4747   -7.4082   26.2925 O.2         1 FSN      -0.3852
     14 C16        11.7983   -8.4321   25.0727 C.3         1 FSN       0.1237
     15 C15        11.9495   -7.6903   23.7187 C.3         1 FSN       0.0043
     16 N11        12.0479   -8.7173   22.6608 N.4         1 FSN       0.2554
     17 C12        11.4897   -8.1005   21.4191 C.3         1 FSN      -0.0294
     18 C13        10.7702   -6.7866   21.8125 C.3         1 FSN      -0.0072
     19 C14        10.7503   -6.7956   23.3471 C.3         1 FSN      -0.0022
     20 C10        11.4187   -9.9823   23.1725 C.3         1 FSN       0.0362
     21 C7         11.8437  -11.2594   22.4938 C.ar        1 FSN       0.0072
     22 C8         12.4435  -11.2791   21.1991 C.ar        1 FSN      -0.0548
     23 C9         12.8016  -12.4946   20.5633 C.ar        1 FSN      -0.0632
     24 C4         12.6115  -13.7420   21.2170 C.ar        1 FSN       0.0188
     25 C5         11.9514  -13.6961   22.4715 C.ar        1 FSN      -0.0632
     26 C6         11.5489  -12.4992   23.0842 C.ar        1 FSN      -0.0548
     27 C3         13.0633  -14.9514   20.6621 C.cat       1 FSN       0.2318
     28 N1         13.5556  -15.0334   19.4769 N.pl3       1 FSN      -0.2729
     29 N2         13.0254  -16.0595   21.2874 N.pl3       1 FSN      -0.2729
     30 C22        11.5863   -9.9238   24.7377 C.3         1 FSN       0.1316
     31 H1         15.0480   -9.1165   27.4348 H           1 FSN       0.0733
     32 H2         15.4878  -10.3217   26.2958 H           1 FSN       0.0733
     33 H3         15.6430  -12.5411   27.1269 H           1 FSN       0.0548
     34 H4         15.1902  -14.2394   28.7570 H           1 FSN       0.0587
     35 H5         12.8391  -11.5227   30.9393 H           1 FSN       0.0587
     36 H6         13.2362   -9.8291   29.2654 H           1 FSN       0.0548
     37 H7         10.9844   -8.0199   25.6856 H           1 FSN       0.0632
     38 H8         12.8596   -7.0760   23.7007 H           1 FSN       0.0882
     39 H9         13.0421   -8.9133   22.5070 H           1 FSN       0.2057
     40 H10        10.8035   -8.7754   20.8928 H           1 FSN       0.0815
     41 H11        12.3138   -7.8826   20.7292 H           1 FSN       0.0815
     42 H12         9.7685   -6.7159   21.3823 H           1 FSN       0.0319
     43 H13        11.3272   -5.9216   21.4488 H           1 FSN       0.0319
     44 H14        10.8528   -5.7896   23.7625 H           1 FSN       0.0323
     45 H15         9.8169   -7.2359   23.7096 H           1 FSN       0.0323
     46 H16        10.3389   -9.9156   22.9824 H           1 FSN       0.1048
     47 H17        12.6052  -10.4038   20.6801 H           1 FSN       0.0559
     48 H18        13.2408  -12.4297   19.6486 H           1 FSN       0.0599
     49 H19        11.7911  -14.5775   22.9833 H           1 FSN       0.0599
     50 H20        11.0692  -12.5389   23.9770 H           1 FSN       0.0559
     51 H21        13.8541  -15.8578   19.1703 H           1 FSN       0.3180
     52 H22        13.6199  -14.2775   18.9405 H           1 FSN       0.3180
     53 H23        12.6745  -16.1116   22.1523 H           1 FSN       0.3180
     54 H24        13.3482  -16.8367   20.8783 H           1 FSN       0.3180
     55 H25        10.6479  -10.2596   25.2088 H           1 FSN       0.0654
@<TRIPOS>BOND
     1     1     2   2
     2     2     3  am
     3     2    30   1
     4     3     4   1
     5     3    12  am
     6     4     5   1
     7     5     6  ar
     8     5    11  ar
     9     6     7  ar
    10     7     8  ar
    11     8     9   1
    12     8    10  ar
    13    10    11  ar
    14    12    13   2
    15    12    14   1
    16    14    15   1
    17    14    30   1
    18    15    16   1
    19    15    19   1
    20    16    17   1
    21    16    20   1
    22    17    18   1
    23    18    19   1
    24    20    21   1
    25    20    30   1
    26    21    22  ar
    27    21    26  ar
    28    22    23  ar
    29    23    24  ar
    30    24    25  ar
    31    24    27   1
    32    25    26  ar
    33    27    28  ar
    34    27    29  ar
    35     4    31   1
    36     4    32   1
    37     6    33   1
    38     7    34   1
    39    10    35   1
    40    11    36   1
    41    14    37   1
    42    15    38   1
    43    16    39   1
    44    17    40   1
    45    17    41   1
    46    18    42   1
    47    18    43   1
    48    19    44   1
    49    19    45   1
    50    20    46   1
    51    22    47   1
    52    23    48   1
    53    25    49   1
    54    26    50   1
    55    28    51   1
    56    28    52   1
    57    29    53   1
    58    29    54   1
    59    30    55   1
@<TRIPOS>SUBSTRUCTURE
     1  FSN      2

