@<TRIPOS>MOLECULE
1oyt_ligand_012
    55    59
SMALL
GAST_HUCK
****
This file was generated by PARSER (from files_GN.cpp)

@<TRIPOS>ATOM
      1 O21        14.4138  -13.7435   18.4339 O.2         1 FSN      -0.3850
      2 C20        14.0685  -13.4285   19.5641 C.2         1 FSN       0.2221
      3 N19        14.1258  -14.2206   20.6207 N.am        1 FSN      -0.1734
      4 C23        14.6526  -15.5685   20.6255 C.3         1 FSN       0.0905
      5 C24        13.6035  -16.6182   20.4325 C.ar        1 FSN      -0.0199
      6 C32        13.8636  -17.7957   19.6895 C.ar        1 FSN      -0.0597
      7 C31        12.8889  -18.8105   19.5727 C.ar        1 FSN      -0.0348
      8 C30        11.6328  -18.6555   20.1813 C.ar        1 FSN       0.1248
      9 F29        10.7383  -19.6046   20.0929 F           1 FSN      -0.1893
     10 C26        11.3510  -17.4852   20.9096 C.ar        1 FSN      -0.0348
     11 C25        12.3298  -16.4816   21.0367 C.ar        1 FSN      -0.0597
     12 C17        13.5905  -13.6020   21.6600 C.2         1 FSN       0.2202
     13 O18        13.4831  -14.0638   22.7892 O.2         1 FSN      -0.3852
     14 C16        13.0295  -12.3249   21.3140 C.3         1 FSN       0.1237
     15 C15        13.5959  -11.1134   22.1020 C.3         1 FSN       0.0043
     16 N11        14.0165  -10.1362   21.0756 N.4         1 FSN       0.2554
     17 C12        12.9538   -9.1068   21.0387 C.3         1 FSN      -0.0294
     18 C13        12.5540   -8.9520   22.5136 C.3         1 FSN      -0.0072
     19 C14        12.5974  -10.3917   23.0465 C.3         1 FSN      -0.0022
     20 C10        14.3245  -10.8481   19.7974 C.3         1 FSN       0.0362
     21 C7         15.7961  -11.0454   19.5412 C.ar        1 FSN       0.0072
     22 C8         16.7764  -11.0166   20.5605 C.ar        1 FSN      -0.0548
     23 C9         18.1354  -11.2587   20.2789 C.ar        1 FSN      -0.0632
     24 C4         18.5811  -11.5511   18.9650 C.ar        1 FSN       0.0188
     25 C5         17.5961  -11.5644   17.9443 C.ar        1 FSN      -0.0632
     26 C6         16.2383  -11.3180   18.2261 C.ar        1 FSN      -0.0548
     27 C3         19.9345  -11.8223   18.6884 C.cat       1 FSN       0.2318
     28 N1         20.8746  -11.5581   19.5124 N.pl3       1 FSN      -0.2729
     29 N2         20.3192  -12.3570   17.5932 N.pl3       1 FSN      -0.2729
     30 C22        13.4611  -12.1493   19.8476 C.3         1 FSN       0.1316
     31 H1         15.1585  -15.7674   21.5745 H           1 FSN       0.0733
     32 H2         15.4335  -15.6434   19.8630 H           1 FSN       0.0733
     33 H3         14.7776  -17.9423   19.2535 H           1 FSN       0.0548
     34 H4         13.1045  -19.6655   19.0534 H           1 FSN       0.0587
     35 H5         10.4386  -17.3667   21.3586 H           1 FSN       0.0587
     36 H6         12.0982  -15.6514   21.5822 H           1 FSN       0.0548
     37 H7         11.9400  -12.3862   21.3756 H           1 FSN       0.0632
     38 H8         14.4792  -11.3993   22.6828 H           1 FSN       0.0882
     39 H9         14.8603   -9.6649   21.4083 H           1 FSN       0.2057
     40 H10        12.0892   -9.4302   20.4466 H           1 FSN       0.0815
     41 H11        13.3436   -8.1756   20.6242 H           1 FSN       0.0815
     42 H12        11.5635   -8.5036   22.6235 H           1 FSN       0.0319
     43 H13        13.2913   -8.3373   23.0390 H           1 FSN       0.0319
     44 H14        12.9389  -10.4114   24.0856 H           1 FSN       0.0323
     45 H15        11.5967  -10.8306   23.0128 H           1 FSN       0.0323
     46 H16        13.9512  -10.2290   18.9700 H           1 FSN       0.1048
     47 H17        16.5190  -10.8318   21.5297 H           1 FSN       0.0559
     48 H18        18.7913  -11.2409   21.0628 H           1 FSN       0.0599
     49 H19        17.8520  -11.7482   16.9716 H           1 FSN       0.0599
     50 H20        15.5658  -11.3559   17.4559 H           1 FSN       0.0559
     51 H21        21.7632  -11.7576   19.2926 H           1 FSN       0.3180
     52 H22        20.6878  -11.1569   20.3354 H           1 FSN       0.3180
     53 H23        19.6981  -12.5937   16.9372 H           1 FSN       0.3180
     54 H24        21.2287  -12.5245   17.4448 H           1 FSN       0.3180
     55 H25        12.5737  -12.0337   19.2124 H           1 FSN       0.0654
@<TRIPOS>BOND
     1     1     2   2
     2     2     3  am
     3     2    30   1
     4     3     4   1
     5     3    12  am
     6     4     5   1
     7     5     6  ar
     8     5    11  ar
     9     6     7  ar
    10     7     8  ar
    11     8     9   1
    12     8    10  ar
    13    10    11  ar
    14    12    13   2
    15    12    14   1
    16    14    15   1
    17    14    30   1
    18    15    16   1
    19    15    19   1
    20    16    17   1
    21    16    20   1
    22    17    18   1
    23    18    19   1
    24    20    21   1
    25    20    30   1
    26    21    22  ar
    27    21    26  ar
    28    22    23  ar
    29    23    24  ar
    30    24    25  ar
    31    24    27   1
    32    25    26  ar
    33    27    28  ar
    34    27    29  ar
    35     4    31   1
    36     4    32   1
    37     6    33   1
    38     7    34   1
    39    10    35   1
    40    11    36   1
    41    14    37   1
    42    15    38   1
    43    16    39   1
    44    17    40   1
    45    17    41   1
    46    18    42   1
    47    18    43   1
    48    19    44   1
    49    19    45   1
    50    20    46   1
    51    22    47   1
    52    23    48   1
    53    25    49   1
    54    26    50   1
    55    28    51   1
    56    28    52   1
    57    29    53   1
    58    29    54   1
    59    30    55   1
@<TRIPOS>SUBSTRUCTURE
     1  FSN      2

