@<TRIPOS>MOLECULE
1oyt_ligand_034
    55    59
SMALL
GAST_HUCK
****
This file was generated by PARSER (from files_GN.cpp)

@<TRIPOS>ATOM
      1 O21        19.7813  -15.3110    6.5914 O.2         1 FSN      -0.3850
      2 C20        19.6521  -15.5442    7.7857 C.2         1 FSN       0.2221
      3 N19        18.9761  -16.5552    8.3066 N.am        1 FSN      -0.1734
      4 C23        18.3033  -17.5800    7.5427 C.3         1 FSN       0.0905
      5 C24        17.3409  -17.0171    6.5597 C.ar        1 FSN      -0.0199
      6 C32        16.2493  -16.2303    7.0006 C.ar        1 FSN      -0.0597
      7 C31        15.3449  -15.6720    6.0807 C.ar        1 FSN      -0.0348
      8 C30        15.5096  -15.9016    4.6990 C.ar        1 FSN       0.1248
      9 F29        14.6671  -15.3901    3.8455 F           1 FSN      -0.1893
     10 C26        16.5894  -16.6850    4.2472 C.ar        1 FSN      -0.0348
     11 C25        17.4950  -17.2390    5.1684 C.ar        1 FSN      -0.0597
     12 C17        19.0238  -16.4792    9.6257 C.2         1 FSN       0.2202
     13 O18        18.4740  -17.2517   10.4010 O.2         1 FSN      -0.3852
     14 C16        19.7640  -15.3364   10.0949 C.3         1 FSN       0.1237
     15 C15        21.0225  -15.6412   10.9566 C.3         1 FSN       0.0043
     16 N11        22.1442  -14.9215   10.3138 N.4         1 FSN       0.2554
     17 C12        22.3858  -13.7121   11.1328 C.3         1 FSN      -0.0294
     18 C13        22.1400  -14.1789   12.5711 C.3         1 FSN      -0.0072
     19 C14        20.9735  -15.1690   12.4337 C.3         1 FSN      -0.0022
     20 C10        21.8311  -14.6898    8.8715 C.3         1 FSN       0.0362
     21 C7         22.5910  -15.6391    7.9836 C.ar        1 FSN       0.0072
     22 C8         22.4815  -17.0409    8.1232 C.ar        1 FSN      -0.0548
     23 C9         23.1762  -17.9176    7.2705 C.ar        1 FSN      -0.0632
     24 C4         24.0208  -17.4362    6.2367 C.ar        1 FSN       0.0188
     25 C5         24.1298  -16.0282    6.1052 C.ar        1 FSN      -0.0632
     26 C6         23.4328  -15.1518    6.9580 C.ar        1 FSN      -0.0548
     27 C3         24.7132  -18.3165    5.3835 C.cat       1 FSN       0.2318
     28 N1         25.3485  -17.9214    4.3467 N.pl3       1 FSN      -0.2729
     29 N2         24.7582  -19.5796    5.5781 N.pl3       1 FSN      -0.2729
     30 C22        20.2735  -14.7124    8.7845 C.3         1 FSN       0.1316
     31 H1         17.7471  -18.2670    8.1856 H           1 FSN       0.0733
     32 H2         19.0684  -18.1820    7.0424 H           1 FSN       0.0733
     33 H3         16.1167  -16.0492    7.9990 H           1 FSN       0.0548
     34 H4         14.5659  -15.0983    6.4151 H           1 FSN       0.0587
     35 H5         16.7167  -16.8494    3.2442 H           1 FSN       0.0587
     36 H6         18.2732  -17.8019    4.8161 H           1 FSN       0.0548
     37 H7         19.0760  -14.6463   10.5950 H           1 FSN       0.0632
     38 H8         21.2557  -16.7096   10.9402 H           1 FSN       0.0882
     39 H9         22.9863  -15.4969   10.4087 H           1 FSN       0.2057
     40 H10        21.6945  -12.9013   10.8806 H           1 FSN       0.0815
     41 H11        23.4122  -13.3674   10.9938 H           1 FSN       0.0815
     42 H12        21.8962  -13.3496   13.2396 H           1 FSN       0.0319
     43 H13        23.0336  -14.6833   12.9453 H           1 FSN       0.0319
     44 H14        21.0981  -16.0079   13.1214 H           1 FSN       0.0323
     45 H15        20.0343  -14.6701   12.6769 H           1 FSN       0.0323
     46 H16        22.1377  -13.6710    8.6007 H           1 FSN       0.1048
     47 H17        21.8751  -17.4433    8.8369 H           1 FSN       0.0559
     48 H18        23.0390  -18.9193    7.4144 H           1 FSN       0.0599
     49 H19        24.7259  -15.6137    5.3865 H           1 FSN       0.0599
     50 H20        23.5465  -14.1450    6.8131 H           1 FSN       0.0559
     51 H21        25.7952  -18.5419    3.8066 H           1 FSN       0.3180
     52 H22        25.3711  -17.0172    4.1166 H           1 FSN       0.3180
     53 H23        24.3297  -19.9643    6.3134 H           1 FSN       0.3180
     54 H24        25.2295  -20.1293    4.9858 H           1 FSN       0.3180
     55 H25        19.8828  -13.6919    8.6882 H           1 FSN       0.0654
@<TRIPOS>BOND
     1     1     2   2
     2     2     3  am
     3     2    30   1
     4     3     4   1
     5     3    12  am
     6     4     5   1
     7     5     6  ar
     8     5    11  ar
     9     6     7  ar
    10     7     8  ar
    11     8     9   1
    12     8    10  ar
    13    10    11  ar
    14    12    13   2
    15    12    14   1
    16    14    15   1
    17    14    30   1
    18    15    16   1
    19    15    19   1
    20    16    17   1
    21    16    20   1
    22    17    18   1
    23    18    19   1
    24    20    21   1
    25    20    30   1
    26    21    22  ar
    27    21    26  ar
    28    22    23  ar
    29    23    24  ar
    30    24    25  ar
    31    24    27   1
    32    25    26  ar
    33    27    28  ar
    34    27    29  ar
    35     4    31   1
    36     4    32   1
    37     6    33   1
    38     7    34   1
    39    10    35   1
    40    11    36   1
    41    14    37   1
    42    15    38   1
    43    16    39   1
    44    17    40   1
    45    17    41   1
    46    18    42   1
    47    18    43   1
    48    19    44   1
    49    19    45   1
    50    20    46   1
    51    22    47   1
    52    23    48   1
    53    25    49   1
    54    26    50   1
    55    28    51   1
    56    28    52   1
    57    29    53   1
    58    29    54   1
    59    30    55   1
@<TRIPOS>SUBSTRUCTURE
     1  FSN      2

