@<TRIPOS>MOLECULE
1oyt_ligand_041
    55    59
SMALL
GAST_HUCK
****
This file was generated by PARSER (from files_GN.cpp)

@<TRIPOS>ATOM
      1 O21        17.9212  -11.7837   22.5700 O.2         1 FSN      -0.3850
      2 C20        17.6843  -12.7271   21.8246 C.2         1 FSN       0.2221
      3 N19        17.8672  -12.7433   20.5143 N.am        1 FSN      -0.1734
      4 C23        18.4461  -11.6738   19.7218 C.3         1 FSN       0.0905
      5 C24        17.6634  -11.3293   18.4993 C.ar        1 FSN      -0.0199
      6 C32        16.2684  -11.1029   18.5773 C.ar        1 FSN      -0.0597
      7 C31        15.5115  -10.8749   17.4108 C.ar        1 FSN      -0.0348
      8 C30        16.1468  -10.8186   16.1570 C.ar        1 FSN       0.1248
      9 F29        15.4491  -10.5876   15.0764 F           1 FSN      -0.1893
     10 C26        17.5391  -11.0000   16.0679 C.ar        1 FSN      -0.0348
     11 C25        18.2881  -11.2683   17.2299 C.ar        1 FSN      -0.0597
     12 C17        17.5028  -13.9246   20.0496 C.2         1 FSN       0.2202
     13 O18        17.5500  -14.2678   18.8746 O.2         1 FSN      -0.3852
     14 C16        16.9762  -14.7849   21.0733 C.3         1 FSN       0.1237
     15 C15        17.7092  -16.1423   21.2437 C.3         1 FSN       0.0043
     16 N11        18.1856  -16.2026   22.6420 N.4         1 FSN       0.2554
     17 C12        17.3479  -17.1985   23.3488 C.3         1 FSN      -0.0294
     18 C13        17.0535  -18.2526   22.2765 C.3         1 FSN      -0.0072
     19 C14        16.8454  -17.4106   21.0094 C.3         1 FSN      -0.0022
     20 C10        18.2312  -14.8316   23.2180 C.3         1 FSN       0.0362
     21 C7         19.6638  -14.3963   23.3624 C.ar        1 FSN       0.0072
     22 C8         20.4362  -13.9515   22.2659 C.ar        1 FSN      -0.0548
     23 C9         21.7312  -13.4276   22.4461 C.ar        1 FSN      -0.0632
     24 C4         22.3620  -13.4323   23.7221 C.ar        1 FSN       0.0188
     25 C5         21.6269  -14.0077   24.7920 C.ar        1 FSN      -0.0632
     26 C6         20.3056  -14.4645   24.6209 C.ar        1 FSN      -0.0548
     27 C3         23.6668  -12.9394   23.9178 C.cat       1 FSN       0.2318
     28 N1         24.4067  -12.5611   22.9476 N.pl3       1 FSN      -0.2729
     29 N2         24.2276  -12.8340   25.0618 N.pl3       1 FSN      -0.2729
     30 C22        17.2353  -13.9854   22.3579 C.3         1 FSN       0.1316
     31 H1         19.4583  -11.9902   19.4503 H           1 FSN       0.0733
     32 H2         18.5518  -10.7655   20.3170 H           1 FSN       0.0733
     33 H3         15.7892  -11.1362   19.4797 H           1 FSN       0.0548
     34 H4         14.4992  -10.7496   17.4771 H           1 FSN       0.0587
     35 H5         18.0093  -10.9489   15.1618 H           1 FSN       0.0587
     36 H6         19.2942  -11.4158   17.1381 H           1 FSN       0.0548
     37 H7         15.9005  -14.9038   20.9148 H           1 FSN       0.0632
     38 H8         18.5921  -16.1919   20.5950 H           1 FSN       0.0882
     39 H9         19.1347  -16.5844   22.6244 H           1 FSN       0.2057
     40 H10        16.4098  -16.7607   23.7077 H           1 FSN       0.0815
     41 H11        17.8899  -17.6273   24.1944 H           1 FSN       0.0815
     42 H12        16.1714  -18.8464   22.5243 H           1 FSN       0.0319
     43 H13        17.9157  -18.9120   22.1535 H           1 FSN       0.0319
     44 H14        17.1651  -17.9518   20.1143 H           1 FSN       0.0323
     45 H15        15.7822  -17.1766   20.9059 H           1 FSN       0.0323
     46 H16        17.7986  -14.8494   24.2260 H           1 FSN       0.1048
     47 H17        20.0476  -13.9655   21.3191 H           1 FSN       0.0559
     48 H18        22.1998  -13.0335   21.6222 H           1 FSN       0.0599
     49 H19        22.0458  -14.1050   25.7187 H           1 FSN       0.0599
     50 H20        19.8147  -14.8535   25.4313 H           1 FSN       0.0559
     51 H21        25.2833  -12.2684   23.0971 H           1 FSN       0.3180
     52 H22        24.0799  -12.5853   22.0769 H           1 FSN       0.3180
     53 H23        23.7806  -13.0748   25.8440 H           1 FSN       0.3180
     54 H24        25.1027  -12.5099   25.1165 H           1 FSN       0.3180
     55 H25        16.2903  -13.8350   22.8982 H           1 FSN       0.0654
@<TRIPOS>BOND
     1     1     2   2
     2     2     3  am
     3     2    30   1
     4     3     4   1
     5     3    12  am
     6     4     5   1
     7     5     6  ar
     8     5    11  ar
     9     6     7  ar
    10     7     8  ar
    11     8     9   1
    12     8    10  ar
    13    10    11  ar
    14    12    13   2
    15    12    14   1
    16    14    15   1
    17    14    30   1
    18    15    16   1
    19    15    19   1
    20    16    17   1
    21    16    20   1
    22    17    18   1
    23    18    19   1
    24    20    21   1
    25    20    30   1
    26    21    22  ar
    27    21    26  ar
    28    22    23  ar
    29    23    24  ar
    30    24    25  ar
    31    24    27   1
    32    25    26  ar
    33    27    28  ar
    34    27    29  ar
    35     4    31   1
    36     4    32   1
    37     6    33   1
    38     7    34   1
    39    10    35   1
    40    11    36   1
    41    14    37   1
    42    15    38   1
    43    16    39   1
    44    17    40   1
    45    17    41   1
    46    18    42   1
    47    18    43   1
    48    19    44   1
    49    19    45   1
    50    20    46   1
    51    22    47   1
    52    23    48   1
    53    25    49   1
    54    26    50   1
    55    28    51   1
    56    28    52   1
    57    29    53   1
    58    29    54   1
    59    30    55   1
@<TRIPOS>SUBSTRUCTURE
     1  FSN      2

