@<TRIPOS>MOLECULE
1oyt_ligand_059
    55    59
SMALL
GAST_HUCK
****
This file was generated by PARSER (from files_GN.cpp)

@<TRIPOS>ATOM
      1 O21         9.5470   -9.5855   22.9740 O.2         1 FSN      -0.3850
      2 C20        10.6863   -9.4549   22.5192 C.2         1 FSN       0.2221
      3 N19        11.4279   -8.3764   22.6351 N.am        1 FSN      -0.1734
      4 C23        11.1109   -7.2236   23.4420 C.3         1 FSN       0.0905
      5 C24        12.2588   -6.7935   24.2664 C.ar        1 FSN      -0.0199
      6 C32        13.0807   -7.7527   24.8856 C.ar        1 FSN      -0.0597
      7 C31        14.3048   -7.3909   25.4539 C.ar        1 FSN      -0.0348
      8 C30        14.7019   -6.0429   25.4624 C.ar        1 FSN       0.1248
      9 F29        15.9046   -5.7189   25.8496 F           1 FSN      -0.1893
     10 C26        13.8229   -5.0573   24.9699 C.ar        1 FSN      -0.0348
     11 C25        12.6296   -5.4339   24.3377 C.ar        1 FSN      -0.0597
     12 C17        12.4574   -8.4933   21.8171 C.2         1 FSN       0.2202
     13 O18        13.3220   -7.6452   21.6463 O.2         1 FSN      -0.3852
     14 C16        12.4948   -9.7393   21.1073 C.3         1 FSN       0.1237
     15 C15        13.7928  -10.5418   21.3383 C.3         1 FSN       0.0043
     16 N11        13.5339  -11.3118   22.5667 N.4         1 FSN       0.2554
     17 C12        14.4983  -12.4368   22.5218 C.3         1 FSN      -0.0294
     18 C13        14.6998  -12.8039   21.0414 C.3         1 FSN      -0.0072
     19 C14        14.1745  -11.5838   20.2554 C.3         1 FSN      -0.0022
     20 C10        12.0841  -11.6691   22.5578 C.3         1 FSN       0.0362
     21 C7         11.6225  -12.1684   23.9028 C.ar        1 FSN       0.0072
     22 C8         11.6954  -13.5540   24.1967 C.ar        1 FSN      -0.0548
     23 C9         11.1831  -14.0722   25.3883 C.ar        1 FSN      -0.0632
     24 C4         10.5649  -13.2479   26.3458 C.ar        1 FSN       0.0188
     25 C5         10.5876  -11.8413   26.0920 C.ar        1 FSN      -0.0632
     26 C6         11.1972  -11.2856   24.9304 C.ar        1 FSN      -0.0548
     27 C3          9.8931  -13.7883   27.4588 C.cat       1 FSN       0.2318
     28 N1          9.6454  -15.0414   27.5603 N.pl3       1 FSN      -0.2729
     29 N2          9.4332  -13.0626   28.4064 N.pl3       1 FSN      -0.2729
     30 C22        11.3422  -10.5143   21.7954 C.3         1 FSN       0.1316
     31 H1         10.2789   -7.4059   24.1248 H           1 FSN       0.0733
     32 H2         10.7994   -6.4187   22.7651 H           1 FSN       0.0733
     33 H3         12.8643   -8.7394   24.8412 H           1 FSN       0.0548
     34 H4         14.9120   -8.1233   25.8316 H           1 FSN       0.0587
     35 H5         14.0759   -4.0734   25.0127 H           1 FSN       0.0587
     36 H6         12.0633   -4.7265   23.8679 H           1 FSN       0.0548
     37 H7         12.3228   -9.5624   20.0485 H           1 FSN       0.0632
     38 H8         14.6524   -9.8851   21.4938 H           1 FSN       0.0882
     39 H9         13.6917  -10.7044   23.3738 H           1 FSN       0.2057
     40 H10        14.1552  -13.3012   23.0889 H           1 FSN       0.0815
     41 H11        15.4434  -12.1008   22.9412 H           1 FSN       0.0815
     42 H12        14.1242  -13.7037   20.7880 H           1 FSN       0.0319
     43 H13        15.7599  -12.9936   20.8345 H           1 FSN       0.0319
     44 H14        14.9526  -11.1989   19.5832 H           1 FSN       0.0323
     45 H15        13.3067  -11.8789   19.6557 H           1 FSN       0.0323
     46 H16        11.9425  -12.5203   21.8671 H           1 FSN       0.1048
     47 H17        12.1218  -14.1827   23.5213 H           1 FSN       0.0559
     48 H18        11.2230  -15.0674   25.5112 H           1 FSN       0.0599
     49 H19        10.1613  -11.1946   26.7596 H           1 FSN       0.0599
     50 H20        11.2614  -10.2612   24.8004 H           1 FSN       0.0559
     51 H21         9.1730  -15.3706   28.2930 H           1 FSN       0.3180
     52 H22         9.9139  -15.6274   26.8818 H           1 FSN       0.3180
     53 H23         9.5519  -12.1410   28.3879 H           1 FSN       0.3180
     54 H24         8.9532  -13.4525   29.0975 H           1 FSN       0.3180
     55 H25        10.6471  -10.9058   21.0331 H           1 FSN       0.0654
@<TRIPOS>BOND
     1     1     2   2
     2     2     3  am
     3     2    30   1
     4     3     4   1
     5     3    12  am
     6     4     5   1
     7     5     6  ar
     8     5    11  ar
     9     6     7  ar
    10     7     8  ar
    11     8     9   1
    12     8    10  ar
    13    10    11  ar
    14    12    13   2
    15    12    14   1
    16    14    15   1
    17    14    30   1
    18    15    16   1
    19    15    19   1
    20    16    17   1
    21    16    20   1
    22    17    18   1
    23    18    19   1
    24    20    21   1
    25    20    30   1
    26    21    22  ar
    27    21    26  ar
    28    22    23  ar
    29    23    24  ar
    30    24    25  ar
    31    24    27   1
    32    25    26  ar
    33    27    28  ar
    34    27    29  ar
    35     4    31   1
    36     4    32   1
    37     6    33   1
    38     7    34   1
    39    10    35   1
    40    11    36   1
    41    14    37   1
    42    15    38   1
    43    16    39   1
    44    17    40   1
    45    17    41   1
    46    18    42   1
    47    18    43   1
    48    19    44   1
    49    19    45   1
    50    20    46   1
    51    22    47   1
    52    23    48   1
    53    25    49   1
    54    26    50   1
    55    28    51   1
    56    28    52   1
    57    29    53   1
    58    29    54   1
    59    30    55   1
@<TRIPOS>SUBSTRUCTURE
     1  FSN      2

