@<TRIPOS>MOLECULE
1oyt_ligand_024
    55    59
SMALL
GAST_HUCK
****
This file was generated by PARSER (from files_GN.cpp)

@<TRIPOS>ATOM
      1 O21        13.9332  -11.2394   18.6848 O.2         1 FSN      -0.3850
      2 C20        13.1560  -11.4161   19.6136 C.2         1 FSN       0.2221
      3 N19        12.5245  -12.5473   19.8761 N.am        1 FSN      -0.1734
      4 C23        12.6653  -13.7790   19.1264 C.3         1 FSN       0.0905
      5 C24        13.7405  -14.6550   19.6700 C.ar        1 FSN      -0.0199
      6 C32        14.7968  -15.1234   18.8525 C.ar        1 FSN      -0.0597
      7 C31        15.7928  -15.9692   19.3774 C.ar        1 FSN      -0.0348
      8 C30        15.7544  -16.3490   20.7314 C.ar        1 FSN       0.1248
      9 F29        16.6842  -17.1244   21.2212 F           1 FSN      -0.1893
     10 C26        14.7045  -15.9006   21.5535 C.ar        1 FSN      -0.0348
     11 C25        13.6982  -15.0732   21.0219 C.ar        1 FSN      -0.0597
     12 C17        11.7367  -12.3693   20.9236 C.2         1 FSN       0.2202
     13 O18        10.9837  -13.2150   21.3860 O.2         1 FSN      -0.3852
     14 C16        11.7788  -11.0278   21.4490 C.3         1 FSN       0.1237
     15 C15        12.2703  -10.8742   22.9178 C.3         1 FSN       0.0043
     16 N11        13.3648   -9.8784   22.8712 N.4         1 FSN       0.2554
     17 C12        12.7971   -8.6115   23.3916 C.3         1 FSN      -0.0294
     18 C13        11.8472   -9.0589   24.5095 C.3         1 FSN      -0.0072
     19 C14        11.2344  -10.3548   23.9549 C.3         1 FSN      -0.0022
     20 C10        13.9623   -9.8483   21.5034 C.3         1 FSN       0.0362
     21 C7         15.2829  -10.5724   21.4660 C.ar        1 FSN       0.0072
     22 C8         16.4049   -9.9901   20.8330 C.ar        1 FSN      -0.0548
     23 C9         17.6397  -10.6600   20.7691 C.ar        1 FSN      -0.0632
     24 C4         17.8235  -11.9434   21.3446 C.ar        1 FSN       0.0188
     25 C5         16.6957  -12.5211   21.9829 C.ar        1 FSN      -0.0632
     26 C6         15.4551  -11.8580   22.0302 C.ar        1 FSN      -0.0548
     27 C3         19.0652  -12.6039   21.2888 C.cat       1 FSN       0.2318
     28 N1         20.0465  -12.1747   20.5899 N.pl3       1 FSN      -0.2729
     29 N2         19.3107  -13.6784   21.9351 N.pl3       1 FSN      -0.2729
     30 C22        12.8385  -10.3654   20.5527 C.3         1 FSN       0.1316
     31 H1         12.8471  -13.5423   18.0736 H           1 FSN       0.0733
     32 H2         11.7295  -14.3440   19.1380 H           1 FSN       0.0733
     33 H3         14.8450  -14.8607   17.8658 H           1 FSN       0.0548
     34 H4         16.5410  -16.3126   18.7701 H           1 FSN       0.0587
     35 H5         14.6630  -16.1825   22.5363 H           1 FSN       0.0587
     36 H6         12.9283  -14.7874   21.6303 H           1 FSN       0.0548
     37 H7         10.8083  -10.5499   21.2971 H           1 FSN       0.0632
     38 H8         12.6797  -11.8183   23.2898 H           1 FSN       0.0882
     39 H9         14.0838  -10.1706   23.5334 H           1 FSN       0.2057
     40 H10        12.2274   -8.0787   22.6226 H           1 FSN       0.0815
     41 H11        13.5842   -7.9586   23.7783 H           1 FSN       0.0815
     42 H12        11.0850   -8.3047   24.7241 H           1 FSN       0.0319
     43 H13        12.4156   -9.2668   25.4208 H           1 FSN       0.0319
     44 H14        11.0767  -11.0783   24.7604 H           1 FSN       0.0323
     45 H15        10.2662  -10.1391   23.4975 H           1 FSN       0.0323
     46 H16        14.1478   -8.8037   21.2264 H           1 FSN       0.1048
     47 H17        16.3353   -9.0629   20.4097 H           1 FSN       0.0559
     48 H18        18.4112  -10.1813   20.3018 H           1 FSN       0.0599
     49 H19        16.7548  -13.4448   22.4168 H           1 FSN       0.0599
     50 H20        14.6756  -12.3343   22.4818 H           1 FSN       0.0559
     51 H21        20.8573  -12.6413   20.5823 H           1 FSN       0.3180
     52 H22        19.9650  -11.3972   20.0792 H           1 FSN       0.3180
     53 H23        18.6615  -14.0664   22.4815 H           1 FSN       0.3180
     54 H24        20.1527  -14.0810   21.8717 H           1 FSN       0.3180
     55 H25        12.3865   -9.5265   20.0096 H           1 FSN       0.0654
@<TRIPOS>BOND
     1     1     2   2
     2     2     3  am
     3     2    30   1
     4     3     4   1
     5     3    12  am
     6     4     5   1
     7     5     6  ar
     8     5    11  ar
     9     6     7  ar
    10     7     8  ar
    11     8     9   1
    12     8    10  ar
    13    10    11  ar
    14    12    13   2
    15    12    14   1
    16    14    15   1
    17    14    30   1
    18    15    16   1
    19    15    19   1
    20    16    17   1
    21    16    20   1
    22    17    18   1
    23    18    19   1
    24    20    21   1
    25    20    30   1
    26    21    22  ar
    27    21    26  ar
    28    22    23  ar
    29    23    24  ar
    30    24    25  ar
    31    24    27   1
    32    25    26  ar
    33    27    28  ar
    34    27    29  ar
    35     4    31   1
    36     4    32   1
    37     6    33   1
    38     7    34   1
    39    10    35   1
    40    11    36   1
    41    14    37   1
    42    15    38   1
    43    16    39   1
    44    17    40   1
    45    17    41   1
    46    18    42   1
    47    18    43   1
    48    19    44   1
    49    19    45   1
    50    20    46   1
    51    22    47   1
    52    23    48   1
    53    25    49   1
    54    26    50   1
    55    28    51   1
    56    28    52   1
    57    29    53   1
    58    29    54   1
    59    30    55   1
@<TRIPOS>SUBSTRUCTURE
     1  FSN      2

