@<TRIPOS>MOLECULE
1oyt_ligand_020
    55    59
SMALL
GAST_HUCK
****
This file was generated by PARSER (from files_GN.cpp)

@<TRIPOS>ATOM
      1 O21        12.3308  -13.0640   20.4540 O.2         1 FSN      -0.3850
      2 C20        12.1632  -12.6703   21.6005 C.2         1 FSN       0.2221
      3 N19        12.4038  -13.3883   22.6822 N.am        1 FSN      -0.1734
      4 C23        12.9481  -14.7258   22.6849 C.3         1 FSN       0.0905
      5 C24        14.2812  -14.9042   22.0531 C.ar        1 FSN      -0.0199
      6 C32        14.6555  -16.1723   21.5509 C.ar        1 FSN      -0.0597
      7 C31        15.8953  -16.3571   20.9169 C.ar        1 FSN      -0.0348
      8 C30        16.7980  -15.2822   20.8104 C.ar        1 FSN       0.1248
      9 F29        17.9429  -15.4533   20.2079 F           1 FSN      -0.1893
     10 C26        16.4614  -14.0299   21.3560 C.ar        1 FSN      -0.0348
     11 C25        15.2090  -13.8379   21.9682 C.ar        1 FSN      -0.0597
     12 C17        11.9474  -12.7440   23.7421 C.2         1 FSN       0.2202
     13 O18        11.9193  -13.1883   24.8837 O.2         1 FSN      -0.3852
     14 C16        11.3414  -11.4771   23.4035 C.3         1 FSN       0.1237
     15 C15        12.0156  -10.2648   24.0798 C.3         1 FSN       0.0043
     16 N11        13.0859   -9.8563   23.1550 N.4         1 FSN       0.2554
     17 C12        13.3931   -8.4539   23.5215 C.3         1 FSN      -0.0294
     18 C13        12.0926   -7.8197   24.0611 C.3         1 FSN      -0.0072
     19 C14        11.1377   -9.0061   24.2914 C.3         1 FSN      -0.0022
     20 C10        12.6341  -10.1439   21.7551 C.3         1 FSN       0.0362
     21 C7         13.7286  -10.3364   20.7414 C.ar        1 FSN       0.0072
     22 C8         13.4005  -10.3928   19.3703 C.ar        1 FSN      -0.0548
     23 C9         14.3849  -10.6110   18.3883 C.ar        1 FSN      -0.0632
     24 C4         15.7592  -10.7564   18.7281 C.ar        1 FSN       0.0188
     25 C5         16.0779  -10.7180   20.1100 C.ar        1 FSN      -0.0632
     26 C6         15.0887  -10.5132   21.0942 C.ar        1 FSN      -0.0548
     27 C3         16.7492  -10.9145   17.7384 C.cat       1 FSN       0.2318
     28 N1         16.4817  -10.9723   16.4906 N.pl3       1 FSN      -0.2729
     29 N2         18.0029  -10.9931   17.9997 N.pl3       1 FSN      -0.2729
     30 C22        11.6509  -11.3547   21.8991 C.3         1 FSN       0.1316
     31 H1         12.2191  -15.3466   22.1593 H           1 FSN       0.0733
     32 H2         13.0249  -15.1125   23.7047 H           1 FSN       0.0733
     33 H3         14.0200  -16.9720   21.6354 H           1 FSN       0.0548
     34 H4         16.1326  -17.2748   20.5335 H           1 FSN       0.0587
     35 H5         17.1224  -13.2508   21.2989 H           1 FSN       0.0587
     36 H6         14.9690  -12.9160   22.3338 H           1 FSN       0.0548
     37 H7         10.2669  -11.5120   23.6091 H           1 FSN       0.0632
     38 H8         12.4522  -10.5468   25.0476 H           1 FSN       0.0882
     39 H9         13.9001  -10.4392   23.3473 H           1 FSN       0.2057
     40 H10        13.8151   -7.8872   22.6909 H           1 FSN       0.0815
     41 H11        14.1298   -8.4761   24.3259 H           1 FSN       0.0815
     42 H12        11.6633   -7.1213   23.3379 H           1 FSN       0.0319
     43 H13        12.2822   -7.2786   24.9933 H           1 FSN       0.0319
     44 H14        10.7082   -8.9844   25.2968 H           1 FSN       0.0323
     45 H15        10.3208   -8.9696   23.5652 H           1 FSN       0.0323
     46 H16        12.0359   -9.2883   21.4174 H           1 FSN       0.1048
     47 H17        12.4241  -10.2968   19.0755 H           1 FSN       0.0559
     48 H18        14.0742  -10.6535   17.4167 H           1 FSN       0.0599
     49 H19        17.0433  -10.8406   20.4284 H           1 FSN       0.0599
     50 H20        15.3796  -10.4989   22.0706 H           1 FSN       0.0559
     51 H21        17.1695  -11.0692   15.8621 H           1 FSN       0.3180
     52 H22        15.5999  -10.9224   16.1951 H           1 FSN       0.3180
     53 H23        18.3152  -10.9612   18.8786 H           1 FSN       0.3180
     54 H24        18.6178  -11.0900   17.2993 H           1 FSN       0.3180
     55 H25        10.7350  -11.1795   21.3309 H           1 FSN       0.0654
@<TRIPOS>BOND
     1     1     2   2
     2     2     3  am
     3     2    30   1
     4     3     4   1
     5     3    12  am
     6     4     5   1
     7     5     6  ar
     8     5    11  ar
     9     6     7  ar
    10     7     8  ar
    11     8     9   1
    12     8    10  ar
    13    10    11  ar
    14    12    13   2
    15    12    14   1
    16    14    15   1
    17    14    30   1
    18    15    16   1
    19    15    19   1
    20    16    17   1
    21    16    20   1
    22    17    18   1
    23    18    19   1
    24    20    21   1
    25    20    30   1
    26    21    22  ar
    27    21    26  ar
    28    22    23  ar
    29    23    24  ar
    30    24    25  ar
    31    24    27   1
    32    25    26  ar
    33    27    28  ar
    34    27    29  ar
    35     4    31   1
    36     4    32   1
    37     6    33   1
    38     7    34   1
    39    10    35   1
    40    11    36   1
    41    14    37   1
    42    15    38   1
    43    16    39   1
    44    17    40   1
    45    17    41   1
    46    18    42   1
    47    18    43   1
    48    19    44   1
    49    19    45   1
    50    20    46   1
    51    22    47   1
    52    23    48   1
    53    25    49   1
    54    26    50   1
    55    28    51   1
    56    28    52   1
    57    29    53   1
    58    29    54   1
    59    30    55   1
@<TRIPOS>SUBSTRUCTURE
     1  FSN      2

