@<TRIPOS>MOLECULE
1oyt_ligand_021
    55    59
SMALL
GAST_HUCK
****
This file was generated by PARSER (from files_GN.cpp)

@<TRIPOS>ATOM
      1 O21        13.4712  -14.5250   19.2905 O.2         1 FSN      -0.3850
      2 C20        13.2250  -14.1201   20.4150 C.2         1 FSN       0.2221
      3 N19        13.3810  -14.8378   21.5111 N.am        1 FSN      -0.1734
      4 C23        13.8726  -16.2007   21.5290 C.3         1 FSN       0.0905
      5 C24        12.8702  -17.2582   21.1740 C.ar        1 FSN      -0.0199
      6 C32        13.0243  -18.5584   21.7154 C.ar        1 FSN      -0.0597
      7 C31        12.1498  -19.6041   21.3676 C.ar        1 FSN      -0.0348
      8 C30        11.1185  -19.3805   20.4377 C.ar        1 FSN       0.1248
      9 F29        10.3199  -20.3574   20.0975 F           1 FSN      -0.1893
     10 C26        10.9505  -18.1022   19.8848 C.ar        1 FSN      -0.0348
     11 C25        11.8070  -17.0484   20.2621 C.ar        1 FSN      -0.0597
     12 C17        12.9762  -14.1313   22.5486 C.2         1 FSN       0.2202
     13 O18        13.0055  -14.5199   23.7117 O.2         1 FSN      -0.3852
     14 C16        12.3484  -12.8894   22.1716 C.3         1 FSN       0.1237
     15 C15        13.0424  -11.5939   22.6551 C.3         1 FSN       0.0043
     16 N11        13.8231  -11.0742   21.5109 N.4         1 FSN       0.2554
     17 C12        13.9696   -9.6187   21.7513 C.3         1 FSN      -0.0294
     18 C13        12.7598   -9.1598   22.5950 C.3         1 FSN      -0.0072
     19 C14        12.0799  -10.4510   23.0713 C.3         1 FSN      -0.0022
     20 C10        13.1562  -11.5223   20.2471 C.3         1 FSN       0.0362
     21 C7         14.0190  -11.5251   19.0123 C.ar        1 FSN       0.0072
     22 C8         13.6430  -12.3123   17.8993 C.ar        1 FSN      -0.0548
     23 C9         14.4864  -12.4584   16.7818 C.ar        1 FSN      -0.0632
     24 C4         15.6847  -11.7174   16.6578 C.ar        1 FSN       0.0188
     25 C5         16.0018  -10.8373   17.7239 C.ar        1 FSN      -0.0632
     26 C6         15.2098  -10.7742   18.8875 C.ar        1 FSN      -0.0548
     27 C3         16.5103  -11.8370   15.5341 C.cat       1 FSN       0.2318
     28 N1         16.4281  -12.8332   14.7245 N.pl3       1 FSN      -0.2729
     29 N2         17.3837  -10.9604   15.2376 N.pl3       1 FSN      -0.2729
     30 C22        12.4989  -12.8847   20.6372 C.3         1 FSN       0.1316
     31 H1         14.2966  -16.4120   22.5163 H           1 FSN       0.0733
     32 H2         14.7164  -16.2872   20.8335 H           1 FSN       0.0733
     33 H3         13.7769  -18.7570   22.3711 H           1 FSN       0.0548
     34 H4         12.2697  -20.5334   21.7896 H           1 FSN       0.0587
     35 H5         10.2050  -17.9421   19.2052 H           1 FSN       0.0587
     36 H6         11.6583  -16.1230   19.8473 H           1 FSN       0.0548
     37 H7         11.2979  -12.9293   22.4803 H           1 FSN       0.0632
     38 H8         13.7271  -11.7982   23.4877 H           1 FSN       0.0882
     39 H9         14.7500  -11.5117   21.5409 H           1 FSN       0.2057
     40 H10        14.0420   -9.0447   20.8236 H           1 FSN       0.0815
     41 H11        14.8912   -9.4584   22.3194 H           1 FSN       0.0815
     42 H12        12.0686   -8.5772   21.9828 H           1 FSN       0.0319
     43 H13        13.0860   -8.5485   23.4393 H           1 FSN       0.0319
     44 H14        11.9217  -10.4487   24.1527 H           1 FSN       0.0323
     45 H15        11.1084  -10.5527   22.5766 H           1 FSN       0.0323
     46 H16        12.3330  -10.8319   20.0296 H           1 FSN       0.1048
     47 H17        12.8053  -12.8924   17.9577 H           1 FSN       0.0559
     48 H18        14.2126  -13.1359   16.0673 H           1 FSN       0.0599
     49 H19        16.8336  -10.2455   17.6830 H           1 FSN       0.0599
     50 H20        15.5158  -10.1589   19.6473 H           1 FSN       0.0559
     51 H21        16.9881  -12.8799   13.9790 H           1 FSN       0.3180
     52 H22        15.8072  -13.5148   14.8731 H           1 FSN       0.3180
     53 H23        17.4923  -10.1989   15.7732 H           1 FSN       0.3180
     54 H24        17.9127  -11.0552   14.4719 H           1 FSN       0.3180
     55 H25        11.5150  -12.9752   20.1676 H           1 FSN       0.0654
@<TRIPOS>BOND
     1     1     2   2
     2     2     3  am
     3     2    30   1
     4     3     4   1
     5     3    12  am
     6     4     5   1
     7     5     6  ar
     8     5    11  ar
     9     6     7  ar
    10     7     8  ar
    11     8     9   1
    12     8    10  ar
    13    10    11  ar
    14    12    13   2
    15    12    14   1
    16    14    15   1
    17    14    30   1
    18    15    16   1
    19    15    19   1
    20    16    17   1
    21    16    20   1
    22    17    18   1
    23    18    19   1
    24    20    21   1
    25    20    30   1
    26    21    22  ar
    27    21    26  ar
    28    22    23  ar
    29    23    24  ar
    30    24    25  ar
    31    24    27   1
    32    25    26  ar
    33    27    28  ar
    34    27    29  ar
    35     4    31   1
    36     4    32   1
    37     6    33   1
    38     7    34   1
    39    10    35   1
    40    11    36   1
    41    14    37   1
    42    15    38   1
    43    16    39   1
    44    17    40   1
    45    17    41   1
    46    18    42   1
    47    18    43   1
    48    19    44   1
    49    19    45   1
    50    20    46   1
    51    22    47   1
    52    23    48   1
    53    25    49   1
    54    26    50   1
    55    28    51   1
    56    28    52   1
    57    29    53   1
    58    29    54   1
    59    30    55   1
@<TRIPOS>SUBSTRUCTURE
     1  FSN      2

