@<TRIPOS>MOLECULE
1oyt_ligand_008
    55    59
SMALL
GAST_HUCK
****
This file was generated by PARSER (from files_GN.cpp)

@<TRIPOS>ATOM
      1 O21        16.7088  -11.8318   20.6866 O.2         1 FSN      -0.3850
      2 C20        16.5010  -13.0005   20.3989 C.2         1 FSN       0.2221
      3 N19        17.4189  -13.9443   20.5081 N.am        1 FSN      -0.1734
      4 C23        18.7639  -13.7295   20.9988 C.3         1 FSN       0.0905
      5 C24        19.6414  -12.9457   20.0753 C.ar        1 FSN      -0.0199
      6 C32        19.3935  -12.8773   18.6818 C.ar        1 FSN      -0.0597
      7 C31        20.2198  -12.1164   17.8353 C.ar        1 FSN      -0.0348
      8 C30        21.3208  -11.4263   18.3708 C.ar        1 FSN       0.1248
      9 F29        22.0776  -10.7076   17.5859 F           1 FSN      -0.1893
     10 C26        21.6019  -11.5057   19.7422 C.ar        1 FSN      -0.0348
     11 C25        20.7672  -12.2688   20.5908 C.ar        1 FSN      -0.0597
     12 C17        16.9483  -15.0730   20.0191 C.2         1 FSN       0.2202
     13 O18        17.5699  -16.1252   19.9496 O.2         1 FSN      -0.3852
     14 C16        15.6256  -14.9320   19.4651 C.3         1 FSN       0.1237
     15 C15        14.5338  -15.7373   20.2076 C.3         1 FSN       0.0043
     16 N11        13.8513  -14.7869   21.1027 N.4         1 FSN       0.2554
     17 C12        12.4983  -15.3592   21.3485 C.3         1 FSN      -0.0294
     18 C13        12.2185  -16.4150   20.2603 C.3         1 FSN      -0.0072
     19 C14        13.4222  -16.3251   19.3112 C.3         1 FSN      -0.0022
     20 C10        13.9430  -13.4203   20.4917 C.3         1 FSN       0.0362
     21 C7         13.7134  -12.2574   21.4218 C.ar        1 FSN       0.0072
     22 C8         14.0802  -10.9439   21.0424 C.ar        1 FSN      -0.0548
     23 C9         13.8983   -9.8471   21.9067 C.ar        1 FSN      -0.0632
     24 C4         13.2325   -9.9872   23.1508 C.ar        1 FSN       0.0188
     25 C5         12.7873  -11.2882   23.4867 C.ar        1 FSN      -0.0632
     26 C6         13.0576  -12.3952   22.6672 C.ar        1 FSN      -0.0548
     27 C3         13.0288   -8.8993   24.0153 C.cat       1 FSN       0.2318
     28 N1         13.6556   -7.7889   23.8947 N.pl3       1 FSN      -0.2729
     29 N2         12.2158   -8.9334   25.0015 N.pl3       1 FSN      -0.2729
     30 C22        15.3020  -13.4469   19.7212 C.3         1 FSN       0.1316
     31 H1         19.2713  -14.6758   21.1990 H           1 FSN       0.0733
     32 H2         18.6813  -13.2121   21.9598 H           1 FSN       0.0733
     33 H3         18.5985  -13.3655   18.2669 H           1 FSN       0.0548
     34 H4         20.0097  -12.0631   16.8360 H           1 FSN       0.0587
     35 H5         22.4009  -11.0069   20.1378 H           1 FSN       0.0587
     36 H6         20.9876  -12.3082   21.5877 H           1 FSN       0.0548
     37 H7         15.6547  -15.1644   18.3961 H           1 FSN       0.0632
     38 H8         14.9672  -16.5478   20.8069 H           1 FSN       0.0882
     39 H9         14.3649  -14.7656   21.9877 H           1 FSN       0.2057
     40 H10        11.7200  -14.5921   21.3521 H           1 FSN       0.0815
     41 H11        12.5010  -15.8359   22.3315 H           1 FSN       0.0815
     42 H12        11.2803  -16.2160   19.7340 H           1 FSN       0.0319
     43 H13        12.1707  -17.4115   20.7091 H           1 FSN       0.0319
     44 H14        13.7013  -17.3058   18.9164 H           1 FSN       0.0323
     45 H15        13.1894  -15.6552   18.4780 H           1 FSN       0.0323
     46 H16        13.1608  -13.3380   19.7276 H           1 FSN       0.1048
     47 H17        14.5395  -10.7799   20.1444 H           1 FSN       0.0559
     48 H18        14.2378   -8.9343   21.5973 H           1 FSN       0.0599
     49 H19        12.2825  -11.4625   24.3580 H           1 FSN       0.0599
     50 H20        12.7422  -13.3015   23.0010 H           1 FSN       0.0559
     51 H21        13.5063   -7.1043   24.5143 H           1 FSN       0.3180
     52 H22        14.2812   -7.6669   23.2139 H           1 FSN       0.3180
     53 H23        11.7115   -9.6993   25.1759 H           1 FSN       0.3180
     54 H24        12.1218   -8.1853   25.5561 H           1 FSN       0.3180
     55 H25        15.2115  -12.9078   18.7706 H           1 FSN       0.0654
@<TRIPOS>BOND
     1     1     2   2
     2     2     3  am
     3     2    30   1
     4     3     4   1
     5     3    12  am
     6     4     5   1
     7     5     6  ar
     8     5    11  ar
     9     6     7  ar
    10     7     8  ar
    11     8     9   1
    12     8    10  ar
    13    10    11  ar
    14    12    13   2
    15    12    14   1
    16    14    15   1
    17    14    30   1
    18    15    16   1
    19    15    19   1
    20    16    17   1
    21    16    20   1
    22    17    18   1
    23    18    19   1
    24    20    21   1
    25    20    30   1
    26    21    22  ar
    27    21    26  ar
    28    22    23  ar
    29    23    24  ar
    30    24    25  ar
    31    24    27   1
    32    25    26  ar
    33    27    28  ar
    34    27    29  ar
    35     4    31   1
    36     4    32   1
    37     6    33   1
    38     7    34   1
    39    10    35   1
    40    11    36   1
    41    14    37   1
    42    15    38   1
    43    16    39   1
    44    17    40   1
    45    17    41   1
    46    18    42   1
    47    18    43   1
    48    19    44   1
    49    19    45   1
    50    20    46   1
    51    22    47   1
    52    23    48   1
    53    25    49   1
    54    26    50   1
    55    28    51   1
    56    28    52   1
    57    29    53   1
    58    29    54   1
    59    30    55   1
@<TRIPOS>SUBSTRUCTURE
     1  FSN      2

