@<TRIPOS>MOLECULE
1oyt_ligand_054
    55    59
SMALL
GAST_HUCK
****
This file was generated by PARSER (from files_GN.cpp)

@<TRIPOS>ATOM
      1 O21        13.7683   -9.1211   19.7742 O.2         1 FSN      -0.3850
      2 C20        12.9023   -9.2023   20.6795 C.2         1 FSN       0.2221
      3 N19        11.8356   -8.4044   20.7851 N.am        1 FSN      -0.1734
      4 C23        11.1861   -7.7618   19.6660 C.3         1 FSN       0.0905
      5 C24        10.5919   -6.4198   19.8761 C.ar        1 FSN      -0.0199
      6 C32        11.3860   -5.2499   19.6485 C.ar        1 FSN      -0.0597
      7 C31        10.8052   -3.9667   19.6040 C.ar        1 FSN      -0.0348
      8 C30         9.4226   -3.8050   19.8291 C.ar        1 FSN       0.1248
      9 F29         8.8923   -2.6219   19.7100 F           1 FSN      -0.1893
     10 C26         8.6459   -4.9473   20.1535 C.ar        1 FSN      -0.0348
     11 C25         9.2109   -6.2375   20.1661 C.ar        1 FSN      -0.0597
     12 C17        11.3513   -8.4499   22.0227 C.2         1 FSN       0.2202
     13 O18        10.2839   -7.9972   22.4262 O.2         1 FSN      -0.3852
     14 C16        12.0810   -9.4114   22.8142 C.3         1 FSN       0.1237
     15 C15        11.2523  -10.7190   22.9225 C.3         1 FSN       0.0043
     16 N11        12.2420  -11.7981   22.9311 N.4         1 FSN       0.2554
     17 C12        12.4235  -12.2157   24.3373 C.3         1 FSN      -0.0294
     18 C13        11.0461  -11.9930   24.9712 C.3         1 FSN      -0.0072
     19 C14        10.4393  -10.8048   24.2175 C.3         1 FSN      -0.0022
     20 C10        13.4313  -11.3456   22.1329 C.3         1 FSN       0.0362
     21 C7         13.6443  -12.1225   20.8777 C.ar        1 FSN       0.0072
     22 C8         12.6390  -12.9671   20.3452 C.ar        1 FSN      -0.0548
     23 C9         12.8640  -13.7054   19.1777 C.ar        1 FSN      -0.0632
     24 C4         14.0711  -13.6002   18.4567 C.ar        1 FSN       0.0188
     25 C5         15.0636  -12.7193   18.9668 C.ar        1 FSN      -0.0632
     26 C6         14.8567  -11.9924   20.1594 C.ar        1 FSN      -0.0548
     27 C3         14.2419  -14.2967   17.2624 C.cat       1 FSN       0.2318
     28 N1         13.6291  -15.3954   17.0214 N.pl3       1 FSN      -0.2729
     29 N2         14.9992  -13.8652   16.3254 N.pl3       1 FSN      -0.2729
     30 C22        13.2789   -9.8023   21.9447 C.3         1 FSN       0.1316
     31 H1         10.3796   -8.4194   19.2900 H           1 FSN       0.0733
     32 H2         11.8849   -7.7158   18.8046 H           1 FSN       0.0733
     33 H3         12.3865   -5.3517   19.4052 H           1 FSN       0.0548
     34 H4         11.3713   -3.1511   19.3076 H           1 FSN       0.0587
     35 H5          7.6444   -4.8401   20.2706 H           1 FSN       0.0587
     36 H6          8.5820   -7.0431   20.2348 H           1 FSN       0.0548
     37 H7         12.4404   -9.0030   23.7862 H           1 FSN       0.0632
     38 H8         10.6152  -10.8722   22.0417 H           1 FSN       0.0882
     39 H9         11.8240  -12.6123   22.4606 H           1 FSN       0.2057
     40 H10        13.1648  -11.5884   24.8255 H           1 FSN       0.0815
     41 H11        12.7128  -13.2778   24.4025 H           1 FSN       0.0815
     42 H12        11.1534  -11.7403   26.0215 H           1 FSN       0.0319
     43 H13        10.4207  -12.8868   24.8598 H           1 FSN       0.0319
     44 H14         9.3934  -10.9979   23.9934 H           1 FSN       0.0323
     45 H15        10.5021   -9.8767   24.8007 H           1 FSN       0.0323
     46 H16        14.3210  -11.5239   22.7399 H           1 FSN       0.1048
     47 H17        11.7240  -13.0535   20.7941 H           1 FSN       0.0559
     48 H18        12.1021  -14.3132   18.8580 H           1 FSN       0.0599
     49 H19        15.9625  -12.6117   18.4780 H           1 FSN       0.0599
     50 H20        15.6042  -11.3722   20.4965 H           1 FSN       0.0559
     51 H21        13.7462  -15.8405   16.2039 H           1 FSN       0.3180
     52 H22        13.0659  -15.7672   17.6687 H           1 FSN       0.3180
     53 H23        15.4625  -13.0623   16.4307 H           1 FSN       0.3180
     54 H24        15.0840  -14.3447   15.5248 H           1 FSN       0.3180
     55 H25        14.1870   -9.3071   22.2681 H           1 FSN       0.0654
@<TRIPOS>BOND
     1     1     2   2
     2     2     3  am
     3     2    30   1
     4     3     4   1
     5     3    12  am
     6     4     5   1
     7     5     6  ar
     8     5    11  ar
     9     6     7  ar
    10     7     8  ar
    11     8     9   1
    12     8    10  ar
    13    10    11  ar
    14    12    13   2
    15    12    14   1
    16    14    15   1
    17    14    30   1
    18    15    16   1
    19    15    19   1
    20    16    17   1
    21    16    20   1
    22    17    18   1
    23    18    19   1
    24    20    21   1
    25    20    30   1
    26    21    22  ar
    27    21    26  ar
    28    22    23  ar
    29    23    24  ar
    30    24    25  ar
    31    24    27   1
    32    25    26  ar
    33    27    28  ar
    34    27    29  ar
    35     4    31   1
    36     4    32   1
    37     6    33   1
    38     7    34   1
    39    10    35   1
    40    11    36   1
    41    14    37   1
    42    15    38   1
    43    16    39   1
    44    17    40   1
    45    17    41   1
    46    18    42   1
    47    18    43   1
    48    19    44   1
    49    19    45   1
    50    20    46   1
    51    22    47   1
    52    23    48   1
    53    25    49   1
    54    26    50   1
    55    28    51   1
    56    28    52   1
    57    29    53   1
    58    29    54   1
    59    30    55   1
@<TRIPOS>SUBSTRUCTURE
     1  FSN      2

