@<TRIPOS>MOLECULE
1oyt_ligand_044
    55    59
SMALL
GAST_HUCK
****
This file was generated by PARSER (from files_GN.cpp)

@<TRIPOS>ATOM
      1 O21        10.2275  -13.2851   23.8831 O.2         1 FSN      -0.3850
      2 C20        10.9060  -12.2741   24.0187 C.2         1 FSN       0.2221
      3 N19        11.3161  -11.8055   25.1857 N.am        1 FSN      -0.1734
      4 C23        11.2872  -12.5070   26.4516 C.3         1 FSN       0.0905
      5 C24         9.9785  -12.5037   27.1677 C.ar        1 FSN      -0.0199
      6 C32         9.4365  -13.7095   27.6710 C.ar        1 FSN      -0.0597
      7 C31         8.2371  -13.7105   28.4070 C.ar        1 FSN      -0.0348
      8 C30         7.5411  -12.5124   28.6371 C.ar        1 FSN       0.1248
      9 F29         6.4235  -12.5242   29.3102 F           1 FSN      -0.1893
     10 C26         8.0765  -11.3006   28.1653 C.ar        1 FSN      -0.0348
     11 C25         9.2902  -11.3006   27.4513 C.ar        1 FSN      -0.0597
     12 C17        11.8405  -10.6117   24.9968 C.2         1 FSN       0.2202
     13 O18        12.3548   -9.9184   25.8657 O.2         1 FSN      -0.3852
     14 C16        11.8816  -10.2280   23.6141 C.3         1 FSN       0.1237
     15 C15        13.3314  -10.2176   23.0669 C.3         1 FSN       0.0043
     16 N11        13.4753  -11.4211   22.2303 N.4         1 FSN       0.2554
     17 C12        14.5034  -11.1177   21.1985 C.3         1 FSN      -0.0294
     18 C13        14.8474   -9.6193   21.3352 C.3         1 FSN      -0.0072
     19 C14        13.7061   -9.0304   22.1712 C.3         1 FSN      -0.0022
     20 C10        12.1192  -11.7986   21.7512 C.3         1 FSN       0.0362
     21 C7         12.1162  -13.2020   21.2081 C.ar        1 FSN       0.0072
     22 C8         12.4385  -14.3184   22.0129 C.ar        1 FSN      -0.0548
     23 C9         12.5330  -15.6145   21.4620 C.ar        1 FSN      -0.0632
     24 C4         12.3732  -15.8406   20.0703 C.ar        1 FSN       0.0188
     25 C5         12.0734  -14.7162   19.2625 C.ar        1 FSN      -0.0632
     26 C6         11.9438  -13.4297   19.8214 C.ar        1 FSN      -0.0548
     27 C3         12.5542  -17.1196   19.5083 C.cat       1 FSN       0.2318
     28 N1         12.4992  -18.1949   20.1988 N.pl3       1 FSN      -0.2729
     29 N2         12.7949  -17.2980   18.2683 N.pl3       1 FSN      -0.2729
     30 C22        11.1563  -11.3920   22.9066 C.3         1 FSN       0.1316
     31 H1         12.0244  -12.0706   27.1300 H           1 FSN       0.0733
     32 H2         11.6309  -13.5319   26.2787 H           1 FSN       0.0733
     33 H3          9.9334  -14.5929   27.5446 H           1 FSN       0.0548
     34 H4          7.8881  -14.5859   28.7936 H           1 FSN       0.0587
     35 H5          7.5899  -10.4202   28.3410 H           1 FSN       0.0587
     36 H6          9.6530  -10.4089   27.1212 H           1 FSN       0.0548
     37 H7         11.3606   -9.2775   23.4611 H           1 FSN       0.0632
     38 H8         14.0763  -10.2690   23.8664 H           1 FSN       0.0882
     39 H9         13.8163  -12.1765   22.8291 H           1 FSN       0.2057
     40 H10        14.1513  -11.3290   20.1852 H           1 FSN       0.0815
     41 H11        15.3834  -11.7361   21.3875 H           1 FSN       0.0815
     42 H12        14.9302   -9.1225   20.3709 H           1 FSN       0.0319
     43 H13        15.7896   -9.5051   21.8725 H           1 FSN       0.0319
     44 H14        14.0330   -8.1732   22.7645 H           1 FSN       0.0323
     45 H15        12.8679   -8.7399   21.5317 H           1 FSN       0.0323
     46 H16        11.8575  -11.1127   20.9340 H           1 FSN       0.1048
     47 H17        12.6400  -14.1957   23.0081 H           1 FSN       0.0559
     48 H18        12.7719  -16.3841   22.0895 H           1 FSN       0.0599
     49 H19        11.9530  -14.8118   18.2524 H           1 FSN       0.0599
     50 H20        11.7734  -12.6473   19.1890 H           1 FSN       0.0559
     51 H21        12.6353  -19.0230   19.7825 H           1 FSN       0.3180
     52 H22        12.3128  -18.1683   21.1133 H           1 FSN       0.3180
     53 H23        12.8600  -16.5702   17.6840 H           1 FSN       0.3180
     54 H24        12.9201  -18.1640   17.9339 H           1 FSN       0.3180
     55 H25        10.1939  -11.0690   22.4971 H           1 FSN       0.0654
@<TRIPOS>BOND
     1     1     2   2
     2     2     3  am
     3     2    30   1
     4     3     4   1
     5     3    12  am
     6     4     5   1
     7     5     6  ar
     8     5    11  ar
     9     6     7  ar
    10     7     8  ar
    11     8     9   1
    12     8    10  ar
    13    10    11  ar
    14    12    13   2
    15    12    14   1
    16    14    15   1
    17    14    30   1
    18    15    16   1
    19    15    19   1
    20    16    17   1
    21    16    20   1
    22    17    18   1
    23    18    19   1
    24    20    21   1
    25    20    30   1
    26    21    22  ar
    27    21    26  ar
    28    22    23  ar
    29    23    24  ar
    30    24    25  ar
    31    24    27   1
    32    25    26  ar
    33    27    28  ar
    34    27    29  ar
    35     4    31   1
    36     4    32   1
    37     6    33   1
    38     7    34   1
    39    10    35   1
    40    11    36   1
    41    14    37   1
    42    15    38   1
    43    16    39   1
    44    17    40   1
    45    17    41   1
    46    18    42   1
    47    18    43   1
    48    19    44   1
    49    19    45   1
    50    20    46   1
    51    22    47   1
    52    23    48   1
    53    25    49   1
    54    26    50   1
    55    28    51   1
    56    28    52   1
    57    29    53   1
    58    29    54   1
    59    30    55   1
@<TRIPOS>SUBSTRUCTURE
     1  FSN      2

