@<TRIPOS>MOLECULE
1oyt_ligand_052
    55    59
SMALL
GAST_HUCK
****
This file was generated by PARSER (from files_GN.cpp)

@<TRIPOS>ATOM
      1 O21        16.0797  -11.1703   21.1750 O.2         1 FSN      -0.3850
      2 C20        16.0352  -11.5636   20.0196 C.2         1 FSN       0.2221
      3 N19        16.9308  -12.3749   19.4913 N.am        1 FSN      -0.1734
      4 C23        18.0484  -12.9479   20.2064 C.3         1 FSN       0.0905
      5 C24        19.3484  -12.3787   19.7504 C.ar        1 FSN      -0.0199
      6 C32        20.1016  -11.5534   20.6087 C.ar        1 FSN      -0.0597
      7 C31        21.3376  -11.0155   20.1923 C.ar        1 FSN      -0.0348
      8 C30        21.8330  -11.3130   18.9109 C.ar        1 FSN       0.1248
      9 F29        22.9870  -10.8286   18.5303 F           1 FSN      -0.1893
     10 C26        21.0963  -12.1353   18.0432 C.ar        1 FSN      -0.0348
     11 C25        19.8561  -12.6597   18.4582 C.ar        1 FSN      -0.0597
     12 C17        16.6460  -12.5605   18.2147 C.2         1 FSN       0.2202
     13 O18        17.2716  -13.2358   17.4307 O.2         1 FSN      -0.3852
     14 C16        15.4812  -11.8270   17.7815 C.3         1 FSN       0.1237
     15 C15        14.2813  -12.7241   17.3743 C.3         1 FSN       0.0043
     16 N11        13.4068  -12.7934   18.5543 N.4         1 FSN       0.2554
     17 C12        12.0446  -13.1284   18.0599 C.3         1 FSN      -0.0294
     18 C13        12.0000  -12.7951   16.5579 C.3         1 FSN      -0.0072
     19 C14        13.3803  -12.1831   16.2446 C.3         1 FSN      -0.0022
     20 C10        13.5617  -11.5028   19.3025 C.3         1 FSN       0.0362
     21 C7         13.1024  -11.5206   20.7278 C.ar        1 FSN       0.0072
     22 C8         13.5471  -10.5770   21.6902 C.ar        1 FSN      -0.0548
     23 C9         13.0947  -10.6211   23.0134 C.ar        1 FSN      -0.0632
     24 C4         12.1514  -11.5894   23.4456 C.ar        1 FSN       0.0188
     25 C5         11.6982  -12.5170   22.4710 C.ar        1 FSN      -0.0632
     26 C6         12.1699  -12.4843   21.1518 C.ar        1 FSN      -0.0548
     27 C3         11.6801  -11.6213   24.7702 C.cat       1 FSN       0.2318
     28 N1         12.1744  -10.8956   25.6994 N.pl3       1 FSN      -0.2729
     29 N2         10.7171  -12.3739   25.1438 N.pl3       1 FSN      -0.2729
     30 C22        15.0470  -11.1025   19.0691 C.3         1 FSN       0.1316
     31 H1         18.0893  -14.0333   20.0857 H           1 FSN       0.0733
     32 H2         17.9022  -12.7724   21.2792 H           1 FSN       0.0733
     33 H3         19.7612  -11.3350   21.5479 H           1 FSN       0.0548
     34 H4         21.8689  -10.4150   20.8260 H           1 FSN       0.0587
     35 H5         21.4530  -12.3553   17.1095 H           1 FSN       0.0587
     36 H6         19.3627  -13.2506   17.8151 H           1 FSN       0.0548
     37 H7         15.7592  -11.1216   16.9907 H           1 FSN       0.0632
     38 H8         14.6074  -13.7372   17.1080 H           1 FSN       0.0882
     39 H9         13.7444  -13.5546   19.1485 H           1 FSN       0.2057
     40 H10        11.2602  -12.5772   18.5977 H           1 FSN       0.0815
     41 H11        11.8685  -14.1962   18.2196 H           1 FSN       0.0815
     42 H12        11.1919  -12.0970   16.3192 H           1 FSN       0.0319
     43 H13        11.8554  -13.7096   15.9764 H           1 FSN       0.0319
     44 H14        13.7424  -12.4824   15.2580 H           1 FSN       0.0323
     45 H15        13.3142  -11.0933   16.2781 H           1 FSN       0.0323
     46 H16        12.9455  -10.7533   18.7926 H           1 FSN       0.1048
     47 H17        14.2207   -9.8461   21.4320 H           1 FSN       0.0559
     48 H18        13.4604   -9.9193   23.6594 H           1 FSN       0.0599
     49 H19        11.0215  -13.2423   22.7102 H           1 FSN       0.0599
     50 H20        11.8223  -13.1847   20.5022 H           1 FSN       0.0559
     51 H21        11.8309  -10.9472   26.5673 H           1 FSN       0.3180
     52 H22        12.8870  -10.3194   25.5229 H           1 FSN       0.3180
     53 H23        10.2856  -12.9369   24.5350 H           1 FSN       0.3180
     54 H24        10.4323  -12.3615   26.0349 H           1 FSN       0.3180
     55 H25        15.1391  -10.0163   18.9621 H           1 FSN       0.0654
@<TRIPOS>BOND
     1     1     2   2
     2     2     3  am
     3     2    30   1
     4     3     4   1
     5     3    12  am
     6     4     5   1
     7     5     6  ar
     8     5    11  ar
     9     6     7  ar
    10     7     8  ar
    11     8     9   1
    12     8    10  ar
    13    10    11  ar
    14    12    13   2
    15    12    14   1
    16    14    15   1
    17    14    30   1
    18    15    16   1
    19    15    19   1
    20    16    17   1
    21    16    20   1
    22    17    18   1
    23    18    19   1
    24    20    21   1
    25    20    30   1
    26    21    22  ar
    27    21    26  ar
    28    22    23  ar
    29    23    24  ar
    30    24    25  ar
    31    24    27   1
    32    25    26  ar
    33    27    28  ar
    34    27    29  ar
    35     4    31   1
    36     4    32   1
    37     6    33   1
    38     7    34   1
    39    10    35   1
    40    11    36   1
    41    14    37   1
    42    15    38   1
    43    16    39   1
    44    17    40   1
    45    17    41   1
    46    18    42   1
    47    18    43   1
    48    19    44   1
    49    19    45   1
    50    20    46   1
    51    22    47   1
    52    23    48   1
    53    25    49   1
    54    26    50   1
    55    28    51   1
    56    28    52   1
    57    29    53   1
    58    29    54   1
    59    30    55   1
@<TRIPOS>SUBSTRUCTURE
     1  FSN      2

