@<TRIPOS>MOLECULE
1oyt_ligand_055
    55    59
SMALL
GAST_HUCK
****
This file was generated by PARSER (from files_GN.cpp)

@<TRIPOS>ATOM
      1 O21        13.9727  -10.4032   22.7542 O.2         1 FSN      -0.3850
      2 C20        12.8694  -10.3012   23.2793 C.2         1 FSN       0.2221
      3 N19        11.8428   -9.6225   22.8041 N.am        1 FSN      -0.1734
      4 C23        11.8174   -8.8851   21.5628 C.3         1 FSN       0.0905
      5 C24        11.2535   -7.5025   21.5820 C.ar        1 FSN      -0.0199
      6 C32        10.9800   -6.8875   20.3418 C.ar        1 FSN      -0.0597
      7 C31        10.3205   -5.6455   20.2636 C.ar        1 FSN      -0.0348
      8 C30         9.9445   -4.9835   21.4420 C.ar        1 FSN       0.1248
      9 F29         9.3454   -3.8290   21.3656 F           1 FSN      -0.1893
     10 C26        10.2501   -5.5528   22.6948 C.ar        1 FSN      -0.0348
     11 C25        10.9185   -6.7826   22.7649 C.ar        1 FSN      -0.0597
     12 C17        10.8146   -9.7683   23.6249 C.2         1 FSN       0.2202
     13 O18         9.7254   -9.2261   23.5082 O.2         1 FSN      -0.3852
     14 C16        11.1655  -10.4315   24.8358 C.3         1 FSN       0.1237
     15 C15        10.2803  -11.6191   25.2824 C.3         1 FSN       0.0043
     16 N11        11.0209  -12.8719   25.0425 N.4         1 FSN       0.2554
     17 C12        11.0339  -13.6202   26.3302 C.3         1 FSN      -0.0294
     18 C13         9.8470  -13.0977   27.1427 C.3         1 FSN      -0.0072
     19 C14         9.9182  -11.6121   26.7916 C.3         1 FSN      -0.0022
     20 C10        12.3238  -12.5702   24.3739 C.3         1 FSN       0.0362
     21 C7         12.3960  -13.2038   23.0101 C.ar        1 FSN       0.0072
     22 C8         11.7166  -12.6469   21.9040 C.ar        1 FSN      -0.0548
     23 C9         11.7662  -13.2643   20.6377 C.ar        1 FSN      -0.0632
     24 C4         12.4807  -14.4654   20.4244 C.ar        1 FSN       0.0188
     25 C5         13.1868  -15.0047   21.5248 C.ar        1 FSN      -0.0632
     26 C6         13.1448  -14.3853   22.7908 C.ar        1 FSN      -0.0548
     27 C3         12.4714  -15.1073   19.1744 C.cat       1 FSN       0.2318
     28 N1         11.4967  -14.9922   18.3666 N.pl3       1 FSN      -0.2729
     29 N2         13.4346  -15.8532   18.7892 N.pl3       1 FSN      -0.2729
     30 C22        12.5246  -11.0246   24.4745 C.3         1 FSN       0.1316
     31 H1         11.2145   -9.4882   20.8749 H           1 FSN       0.0733
     32 H2         12.8221   -8.8291   21.1221 H           1 FSN       0.0733
     33 H3         11.2419   -7.3611   19.4760 H           1 FSN       0.0548
     34 H4         10.1087   -5.2307   19.3525 H           1 FSN       0.0587
     35 H5          9.9884   -5.0581   23.5499 H           1 FSN       0.0587
     36 H6         11.1561   -7.1603   23.6862 H           1 FSN       0.0548
     37 H7         11.2561   -9.6673   25.6171 H           1 FSN       0.0632
     38 H8          9.3678  -11.6708   24.6805 H           1 FSN       0.0882
     39 H9         10.4588  -13.4361   24.4028 H           1 FSN       0.2057
     40 H10        11.9383  -13.4146   26.9088 H           1 FSN       0.0815
     41 H11        10.9433  -14.6932   26.1584 H           1 FSN       0.0815
     42 H12         9.9658  -13.2687   28.2169 H           1 FSN       0.0319
     43 H13         8.9128  -13.5501   26.7957 H           1 FSN       0.0319
     44 H14         8.9803  -11.1039   27.0186 H           1 FSN       0.0323
     45 H15        10.7155  -11.1495   27.3754 H           1 FSN       0.0323
     46 H16        13.1261  -13.0085   24.9600 H           1 FSN       0.1048
     47 H17        11.1705  -11.7912   22.0101 H           1 FSN       0.0559
     48 H18        11.2693  -12.8165   19.8697 H           1 FSN       0.0599
     49 H19        13.7179  -15.8743   21.4336 H           1 FSN       0.0599
     50 H20        13.6704  -14.8128   23.5515 H           1 FSN       0.0559
     51 H21        11.5104  -15.4418   17.5455 H           1 FSN       0.3180
     52 H22        10.7428  -14.4900   18.5993 H           1 FSN       0.3180
     53 H23        14.1815  -15.9846   19.3351 H           1 FSN       0.3180
     54 H24        13.3936  -16.2715   17.9539 H           1 FSN       0.3180
     55 H25        13.2247  -10.7705   25.2689 H           1 FSN       0.0654
@<TRIPOS>BOND
     1     1     2   2
     2     2     3  am
     3     2    30   1
     4     3     4   1
     5     3    12  am
     6     4     5   1
     7     5     6  ar
     8     5    11  ar
     9     6     7  ar
    10     7     8  ar
    11     8     9   1
    12     8    10  ar
    13    10    11  ar
    14    12    13   2
    15    12    14   1
    16    14    15   1
    17    14    30   1
    18    15    16   1
    19    15    19   1
    20    16    17   1
    21    16    20   1
    22    17    18   1
    23    18    19   1
    24    20    21   1
    25    20    30   1
    26    21    22  ar
    27    21    26  ar
    28    22    23  ar
    29    23    24  ar
    30    24    25  ar
    31    24    27   1
    32    25    26  ar
    33    27    28  ar
    34    27    29  ar
    35     4    31   1
    36     4    32   1
    37     6    33   1
    38     7    34   1
    39    10    35   1
    40    11    36   1
    41    14    37   1
    42    15    38   1
    43    16    39   1
    44    17    40   1
    45    17    41   1
    46    18    42   1
    47    18    43   1
    48    19    44   1
    49    19    45   1
    50    20    46   1
    51    22    47   1
    52    23    48   1
    53    25    49   1
    54    26    50   1
    55    28    51   1
    56    28    52   1
    57    29    53   1
    58    29    54   1
    59    30    55   1
@<TRIPOS>SUBSTRUCTURE
     1  FSN      2

