@<TRIPOS>MOLECULE
1oyt_ligand_025
    55    59
SMALL
GAST_HUCK
****
This file was generated by PARSER (from files_GN.cpp)

@<TRIPOS>ATOM
      1 O21        19.5904  -15.3225    7.1231 O.2         1 FSN      -0.3850
      2 C20        19.7102  -16.4811    7.5022 C.2         1 FSN       0.2221
      3 N19        20.7279  -16.9500    8.2088 N.am        1 FSN      -0.1734
      4 C23        21.8509  -16.1860    8.7362 C.3         1 FSN       0.0905
      5 C24        21.5004  -14.7823    9.0866 C.ar        1 FSN      -0.0199
      6 C32        20.6036  -14.5287   10.1503 C.ar        1 FSN      -0.0597
      7 C31        20.1146  -13.2296   10.3760 C.ar        1 FSN      -0.0348
      8 C30        20.5252  -12.1665    9.5447 C.ar        1 FSN       0.1248
      9 F29        20.0211  -10.9736    9.7127 F           1 FSN      -0.1893
     10 C26        21.4485  -12.4054    8.5046 C.ar        1 FSN      -0.0348
     11 C25        21.9375  -13.7044    8.2801 C.ar        1 FSN      -0.0597
     12 C17        20.6011  -18.2597    8.3183 C.2         1 FSN       0.2202
     13 O18        21.4156  -19.0070    8.8489 O.2         1 FSN      -0.3852
     14 C16        19.3980  -18.7687    7.7073 C.3         1 FSN       0.1237
     15 C15        18.3928  -19.3670    8.7285 C.3         1 FSN       0.0043
     16 N11        17.4881  -18.2586    9.0659 N.4         1 FSN       0.2554
     17 C12        16.2739  -18.8778    9.6380 C.3         1 FSN      -0.0294
     18 C13        16.1454  -20.2754    8.9949 C.3         1 FSN      -0.0072
     19 C14        17.4659  -20.4982    8.2254 C.3         1 FSN      -0.0022
     20 C10        17.3347  -17.4220    7.8382 C.3         1 FSN       0.0362
     21 C7         16.7682  -16.0569    8.0998 C.ar        1 FSN       0.0072
     22 C8         17.3745  -15.1590    9.0108 C.ar        1 FSN      -0.0548
     23 C9         16.8049  -13.9009    9.2770 C.ar        1 FSN      -0.0632
     24 C4         15.6063  -13.4827    8.6439 C.ar        1 FSN       0.0188
     25 C5         15.0098  -14.3831    7.7240 C.ar        1 FSN      -0.0632
     26 C6         15.5778  -15.6416    7.4591 C.ar        1 FSN      -0.0548
     27 C3         15.0340  -12.2272    8.9307 C.cat       1 FSN       0.2318
     28 N1         15.6752  -11.2940    9.5246 N.pl3       1 FSN      -0.2729
     29 N2         13.8385  -11.9244    8.6195 N.pl3       1 FSN      -0.2729
     30 C22        18.7330  -17.4887    7.1557 C.3         1 FSN       0.1316
     31 H1         22.6500  -16.2217    7.9912 H           1 FSN       0.0733
     32 H2         22.2474  -16.6515    9.6422 H           1 FSN       0.0733
     33 H3         20.2525  -15.3005   10.7274 H           1 FSN       0.0548
     34 H4         19.4331  -13.0643   11.1211 H           1 FSN       0.0587
     35 H5         21.7352  -11.6437    7.8832 H           1 FSN       0.0587
     36 H6         22.5761  -13.8656    7.4948 H           1 FSN       0.0548
     37 H7         19.6504  -19.4805    6.9103 H           1 FSN       0.0632
     38 H8         18.9033  -19.7106    9.6361 H           1 FSN       0.0882
     39 H9         17.9515  -17.7013    9.7825 H           1 FSN       0.2057
     40 H10        15.3781  -18.2740    9.4748 H           1 FSN       0.0815
     41 H11        16.4226  -18.9776   10.7173 H           1 FSN       0.0815
     42 H12        15.2934  -20.3117    8.3114 H           1 FSN       0.0319
     43 H13        16.0105  -21.0406    9.7651 H           1 FSN       0.0319
     44 H14        17.8944  -21.4828    8.4308 H           1 FSN       0.0323
     45 H15        17.2914  -20.4105    7.1512 H           1 FSN       0.0323
     46 H16        16.6376  -17.9449    7.1681 H           1 FSN       0.1048
     47 H17        18.2315  -15.4135    9.5008 H           1 FSN       0.0559
     48 H18        17.2708  -13.3045    9.9656 H           1 FSN       0.0599
     49 H19        14.1500  -14.1327    7.2262 H           1 FSN       0.0599
     50 H20        15.1111  -16.2633    6.7905 H           1 FSN       0.0559
     51 H21        15.2513  -10.4756    9.6967 H           1 FSN       0.3180
     52 H22        16.5655  -11.4133    9.7853 H           1 FSN       0.3180
     53 H23        13.2817  -12.5373    8.1820 H           1 FSN       0.3180
     54 H24        13.5010  -11.0777    8.8395 H           1 FSN       0.3180
     55 H25        18.6361  -17.5333    6.0663 H           1 FSN       0.0654
@<TRIPOS>BOND
     1     1     2   2
     2     2     3  am
     3     2    30   1
     4     3     4   1
     5     3    12  am
     6     4     5   1
     7     5     6  ar
     8     5    11  ar
     9     6     7  ar
    10     7     8  ar
    11     8     9   1
    12     8    10  ar
    13    10    11  ar
    14    12    13   2
    15    12    14   1
    16    14    15   1
    17    14    30   1
    18    15    16   1
    19    15    19   1
    20    16    17   1
    21    16    20   1
    22    17    18   1
    23    18    19   1
    24    20    21   1
    25    20    30   1
    26    21    22  ar
    27    21    26  ar
    28    22    23  ar
    29    23    24  ar
    30    24    25  ar
    31    24    27   1
    32    25    26  ar
    33    27    28  ar
    34    27    29  ar
    35     4    31   1
    36     4    32   1
    37     6    33   1
    38     7    34   1
    39    10    35   1
    40    11    36   1
    41    14    37   1
    42    15    38   1
    43    16    39   1
    44    17    40   1
    45    17    41   1
    46    18    42   1
    47    18    43   1
    48    19    44   1
    49    19    45   1
    50    20    46   1
    51    22    47   1
    52    23    48   1
    53    25    49   1
    54    26    50   1
    55    28    51   1
    56    28    52   1
    57    29    53   1
    58    29    54   1
    59    30    55   1
@<TRIPOS>SUBSTRUCTURE
     1  FSN      2

