@<TRIPOS>MOLECULE
1oyt_ligand_011
    55    59
SMALL
GAST_HUCK
****
This file was generated by PARSER (from files_GN.cpp)

@<TRIPOS>ATOM
      1 O21        14.8633  -14.4368   17.3121 O.2         1 FSN      -0.3850
      2 C20        14.6767  -15.6234   17.0281 C.2         1 FSN       0.2221
      3 N19        13.5270  -16.2540   17.2002 N.am        1 FSN      -0.1734
      4 C23        12.2994  -15.6455   17.6628 C.3         1 FSN       0.0905
      5 C24        12.4419  -15.0483   19.0173 C.ar        1 FSN      -0.0199
      6 C32        12.7339  -13.6751   19.1870 C.ar        1 FSN      -0.0597
      7 C31        12.9242  -13.1319   20.4714 C.ar        1 FSN      -0.0348
      8 C30        12.7964  -13.9500   21.6083 C.ar        1 FSN       0.1248
      9 F29        12.9864  -13.4505   22.7993 F           1 FSN      -0.1893
     10 C26        12.4829  -15.3134   21.4547 C.ar        1 FSN      -0.0348
     11 C25        12.3132  -15.8610   20.1692 C.ar        1 FSN      -0.0597
     12 C17        13.6865  -17.5284   16.9073 C.2         1 FSN       0.2202
     13 O18        12.8173  -18.3911   17.0002 O.2         1 FSN      -0.3852
     14 C16        15.0464  -17.8578   16.5720 C.3         1 FSN       0.1237
     15 C15        15.2624  -18.3670   15.1293 C.3         1 FSN       0.0043
     16 N11        15.7465  -17.2183   14.3389 N.4         1 FSN       0.2554
     17 C12        16.4753  -17.8162   13.1885 C.3         1 FSN      -0.0294
     18 C13        17.0133  -19.1923   13.6345 C.3         1 FSN      -0.0072
     19 C14        16.3480  -19.4615   14.9929 C.3         1 FSN      -0.0022
     20 C10        16.4765  -16.2873   15.2568 C.3         1 FSN       0.0362
     21 C7         16.6048  -14.8619   14.7632 C.ar        1 FSN       0.0072
     22 C8         16.5423  -14.5092   13.3919 C.ar        1 FSN      -0.0548
     23 C9         16.6468  -13.1752   12.9601 C.ar        1 FSN      -0.0632
     24 C4         16.7355  -12.1065   13.8855 C.ar        1 FSN       0.0188
     25 C5         16.8273  -12.4521   15.2576 C.ar        1 FSN      -0.0632
     26 C6         16.8019  -13.7999   15.6824 C.ar        1 FSN      -0.0548
     27 C3         16.6665  -10.7760   13.4562 C.cat       1 FSN       0.2318
     28 N1         16.9620  -10.4126   12.2670 N.pl3       1 FSN      -0.2729
     29 N2         16.2582   -9.8298   14.2137 N.pl3       1 FSN      -0.2729
     30 C22        15.7663  -16.4937   16.6413 C.3         1 FSN       0.1316
     31 H1         11.4755  -16.3633   17.6910 H           1 FSN       0.0733
     32 H2         12.0094  -14.8853   16.9392 H           1 FSN       0.0733
     33 H3         12.8408  -13.0633   18.3741 H           1 FSN       0.0548
     34 H4         13.1686  -12.1429   20.5733 H           1 FSN       0.0587
     35 H5         12.3899  -15.9150   22.2752 H           1 FSN       0.0587
     36 H6         12.0931  -16.8553   20.0782 H           1 FSN       0.0548
     37 H7         15.4401  -18.5584   17.3144 H           1 FSN       0.0632
     38 H8         14.3285  -18.7345   14.6841 H           1 FSN       0.0882
     39 H9         14.9372  -16.6897   13.9979 H           1 FSN       0.2057
     40 H10        17.2847  -17.1813   12.8240 H           1 FSN       0.0815
     41 H11        15.7601  -17.9568   12.3719 H           1 FSN       0.0815
     42 H12        18.1045  -19.1688   13.7327 H           1 FSN       0.0319
     43 H13        16.7432  -19.9640   12.9110 H           1 FSN       0.0319
     44 H14        15.9049  -20.4599   15.0351 H           1 FSN       0.0323
     45 H15        17.0961  -19.3763   15.7853 H           1 FSN       0.0323
     46 H16        17.5004  -16.6608   15.3727 H           1 FSN       0.1048
     47 H17        16.3962  -15.2204   12.6719 H           1 FSN       0.0559
     48 H18        16.5988  -12.9955   11.9528 H           1 FSN       0.0599
     49 H19        16.9080  -11.7236   15.9735 H           1 FSN       0.0599
     50 H20        16.8330  -13.9953   16.6863 H           1 FSN       0.0559
     51 H21        16.8647   -9.5160   12.0185 H           1 FSN       0.3180
     52 H22        17.2667  -11.0325   11.6396 H           1 FSN       0.3180
     53 H23        15.9953   -9.9972   15.0928 H           1 FSN       0.3180
     54 H24        16.1863   -8.9669   13.8646 H           1 FSN       0.3180
     55 H25        16.5052  -16.5043   17.4472 H           1 FSN       0.0654
@<TRIPOS>BOND
     1     1     2   2
     2     2     3  am
     3     2    30   1
     4     3     4   1
     5     3    12  am
     6     4     5   1
     7     5     6  ar
     8     5    11  ar
     9     6     7  ar
    10     7     8  ar
    11     8     9   1
    12     8    10  ar
    13    10    11  ar
    14    12    13   2
    15    12    14   1
    16    14    15   1
    17    14    30   1
    18    15    16   1
    19    15    19   1
    20    16    17   1
    21    16    20   1
    22    17    18   1
    23    18    19   1
    24    20    21   1
    25    20    30   1
    26    21    22  ar
    27    21    26  ar
    28    22    23  ar
    29    23    24  ar
    30    24    25  ar
    31    24    27   1
    32    25    26  ar
    33    27    28  ar
    34    27    29  ar
    35     4    31   1
    36     4    32   1
    37     6    33   1
    38     7    34   1
    39    10    35   1
    40    11    36   1
    41    14    37   1
    42    15    38   1
    43    16    39   1
    44    17    40   1
    45    17    41   1
    46    18    42   1
    47    18    43   1
    48    19    44   1
    49    19    45   1
    50    20    46   1
    51    22    47   1
    52    23    48   1
    53    25    49   1
    54    26    50   1
    55    28    51   1
    56    28    52   1
    57    29    53   1
    58    29    54   1
    59    30    55   1
@<TRIPOS>SUBSTRUCTURE
     1  FSN      2

