@<TRIPOS>MOLECULE
1oyt_ligand_015
    55    59
SMALL
GAST_HUCK
****
This file was generated by PARSER (from files_GN.cpp)

@<TRIPOS>ATOM
      1 O21        15.5411  -11.3609   20.1877 O.2         1 FSN      -0.3850
      2 C20        15.8676  -12.3902   19.6084 C.2         1 FSN       0.2221
      3 N19        17.0670  -12.9409   19.6788 N.am        1 FSN      -0.1734
      4 C23        18.1965  -12.4718   20.4525 C.3         1 FSN       0.0905
      5 C24        19.3671  -11.9554   19.6700 C.ar        1 FSN      -0.0199
      6 C32        19.3567  -11.7381   18.2638 C.ar        1 FSN      -0.0597
      7 C31        20.5052  -11.2701   17.5942 C.ar        1 FSN      -0.0348
      8 C30        21.6694  -10.9634   18.3176 C.ar        1 FSN       0.1248
      9 F29        22.6967  -10.4600   17.6940 F           1 FSN      -0.1893
     10 C26        21.6928  -11.1544   19.7136 C.ar        1 FSN      -0.0348
     11 C25        20.5560  -11.6505   20.3789 C.ar        1 FSN      -0.0597
     12 C17        17.1056  -13.9761   18.8638 C.2         1 FSN       0.2202
     13 O18        18.0716  -14.7066   18.7105 O.2         1 FSN      -0.3852
     14 C16        15.9200  -14.1103   18.0570 C.3         1 FSN       0.1237
     15 C15        15.1932  -15.4575   18.2607 C.3         1 FSN       0.0043
     16 N11        14.1677  -15.2028   19.2839 N.4         1 FSN       0.2554
     17 C12        13.1207  -16.2437   19.1041 C.3         1 FSN      -0.0294
     18 C13        13.3035  -16.8347   17.6873 C.3         1 FSN      -0.0072
     19 C14        14.4232  -16.0008   17.0461 C.3         1 FSN      -0.0022
     20 C10        13.7425  -13.7730   19.1541 C.3         1 FSN       0.0362
     21 C7         13.0841  -13.1785   20.3621 C.ar        1 FSN       0.0072
     22 C8         12.3920  -11.9512   20.2408 C.ar        1 FSN      -0.0548
     23 C9         11.7256  -11.3758   21.3410 C.ar        1 FSN      -0.0632
     24 C4         11.7461  -11.9943   22.6162 C.ar        1 FSN       0.0188
     25 C5         12.4815  -13.2013   22.7412 C.ar        1 FSN      -0.0632
     26 C6         13.1317  -13.7826   21.6385 C.ar        1 FSN      -0.0548
     27 C3         11.0339  -11.4665   23.7009 C.cat       1 FSN       0.2318
     28 N1         10.6186  -10.2561   23.7457 N.pl3       1 FSN      -0.2729
     29 N2         10.7140  -12.1901   24.7054 N.pl3       1 FSN      -0.2729
     30 C22        15.0013  -13.0170   18.6338 C.3         1 FSN       0.1316
     31 H1         18.5433  -13.3006   21.0886 H           1 FSN       0.0733
     32 H2         17.8886  -11.6767   21.1350 H           1 FSN       0.0733
     33 H3         18.5172  -11.9067   17.7047 H           1 FSN       0.0548
     34 H4         20.4893  -11.1366   16.5831 H           1 FSN       0.0587
     35 H5         22.5323  -10.9161   20.2515 H           1 FSN       0.0587
     36 H6         20.5972  -11.7906   21.3897 H           1 FSN       0.0548
     37 H7         16.1704  -13.9292   17.0035 H           1 FSN       0.0632
     38 H8         15.8770  -16.2361   18.6182 H           1 FSN       0.0882
     39 H9         14.6195  -15.3331   20.1906 H           1 FSN       0.2057
     40 H10        12.1134  -15.8434   19.2400 H           1 FSN       0.0815
     41 H11        13.2778  -17.0252   19.8533 H           1 FSN       0.0815
     42 H12        12.3847  -16.7708   17.1007 H           1 FSN       0.0319
     43 H13        13.6150  -17.8814   17.7541 H           1 FSN       0.0319
     44 H14        15.0656  -16.6016   16.3980 H           1 FSN       0.0323
     45 H15        13.9883  -15.1790   16.4670 H           1 FSN       0.0323
     46 H16        12.9982  -13.7293   18.3416 H           1 FSN       0.1048
     47 H17        12.3632  -11.4665   19.3398 H           1 FSN       0.0559
     48 H18        11.2022  -10.5110   21.1870 H           1 FSN       0.0599
     49 H19        12.5584  -13.6767   23.6408 H           1 FSN       0.0599
     50 H20        13.6412  -14.6513   21.7941 H           1 FSN       0.0559
     51 H21        10.1245   -9.9605   24.4825 H           1 FSN       0.3180
     52 H22        10.7919   -9.6675   23.0408 H           1 FSN       0.3180
     53 H23        10.9432  -13.0943   24.7168 H           1 FSN       0.3180
     54 H24        10.1684  -11.8433   25.3769 H           1 FSN       0.3180
     55 H25        14.7310  -12.2887   17.8629 H           1 FSN       0.0654
@<TRIPOS>BOND
     1     1     2   2
     2     2     3  am
     3     2    30   1
     4     3     4   1
     5     3    12  am
     6     4     5   1
     7     5     6  ar
     8     5    11  ar
     9     6     7  ar
    10     7     8  ar
    11     8     9   1
    12     8    10  ar
    13    10    11  ar
    14    12    13   2
    15    12    14   1
    16    14    15   1
    17    14    30   1
    18    15    16   1
    19    15    19   1
    20    16    17   1
    21    16    20   1
    22    17    18   1
    23    18    19   1
    24    20    21   1
    25    20    30   1
    26    21    22  ar
    27    21    26  ar
    28    22    23  ar
    29    23    24  ar
    30    24    25  ar
    31    24    27   1
    32    25    26  ar
    33    27    28  ar
    34    27    29  ar
    35     4    31   1
    36     4    32   1
    37     6    33   1
    38     7    34   1
    39    10    35   1
    40    11    36   1
    41    14    37   1
    42    15    38   1
    43    16    39   1
    44    17    40   1
    45    17    41   1
    46    18    42   1
    47    18    43   1
    48    19    44   1
    49    19    45   1
    50    20    46   1
    51    22    47   1
    52    23    48   1
    53    25    49   1
    54    26    50   1
    55    28    51   1
    56    28    52   1
    57    29    53   1
    58    29    54   1
    59    30    55   1
@<TRIPOS>SUBSTRUCTURE
     1  FSN      2

