@<TRIPOS>MOLECULE
1oyt_ligand_046
    55    59
SMALL
GAST_HUCK
****
This file was generated by PARSER (from files_GN.cpp)

@<TRIPOS>ATOM
      1 O21        17.9779  -13.4212   12.1763 O.2         1 FSN      -0.3850
      2 C20        16.7634  -13.3182   12.2847 C.2         1 FSN       0.2221
      3 N19        16.1225  -12.9339   13.3747 N.am        1 FSN      -0.1734
      4 C23        16.8116  -12.5578   14.6048 C.3         1 FSN       0.0905
      5 C24        15.9677  -12.5277   15.8308 C.ar        1 FSN      -0.0199
      6 C32        15.3092  -11.3526   16.2371 C.ar        1 FSN      -0.0597
      7 C31        14.3779  -11.3751   17.2999 C.ar        1 FSN      -0.0348
      8 C30        14.1313  -12.5773   17.9835 C.ar        1 FSN       0.1248
      9 F29        13.2546  -12.6059   18.9539 F           1 FSN      -0.1893
     10 C26        14.7996  -13.7518   17.6090 C.ar        1 FSN      -0.0348
     11 C25        15.7114  -13.7355   16.5335 C.ar        1 FSN      -0.0597
     12 C17        14.8342  -12.8041   13.0897 C.2         1 FSN       0.2202
     13 O18        13.9718  -12.3449   13.8130 O.2         1 FSN      -0.3852
     14 C16        14.5049  -13.2206   11.7442 C.3         1 FSN       0.1237
     15 C15        13.7599  -12.1799   10.8624 C.3         1 FSN       0.0043
     16 N11        14.6539  -11.8224    9.7388 N.4         1 FSN       0.2554
     17 C12        14.0204  -12.3025    8.4868 C.3         1 FSN      -0.0294
     18 C13        12.5158  -12.1972    8.7667 C.3         1 FSN      -0.0072
     19 C14        12.4293  -12.6656   10.2252 C.3         1 FSN      -0.0022
     20 C10        16.0391  -12.2861   10.0410 C.3         1 FSN       0.0362
     21 C7         16.9115  -11.0994   10.3747 C.ar        1 FSN       0.0072
     22 C8         16.6805  -10.3135   11.5238 C.ar        1 FSN      -0.0548
     23 C9         17.5285   -9.2438   11.8615 C.ar        1 FSN      -0.0632
     24 C4         18.5533   -8.8195   10.9842 C.ar        1 FSN       0.0188
     25 C5         18.7909   -9.6157    9.8376 C.ar        1 FSN      -0.0632
     26 C6         17.9935  -10.7412    9.5430 C.ar        1 FSN      -0.0548
     27 C3         19.2363   -7.6144   11.2158 C.cat       1 FSN       0.2318
     28 N1         19.1543   -6.9663   12.3124 N.pl3       1 FSN      -0.2729
     29 N2         19.9493   -7.0451   10.3208 N.pl3       1 FSN      -0.2729
     30 C22        15.8973  -13.4053   11.1289 C.3         1 FSN       0.1316
     31 H1         17.2698  -11.5761   14.4515 H           1 FSN       0.0733
     32 H2         17.6445  -13.2461   14.7812 H           1 FSN       0.0733
     33 H3         15.4445  -10.4760   15.7205 H           1 FSN       0.0548
     34 H4         13.8693  -10.5255   17.5459 H           1 FSN       0.0587
     35 H5         14.6205  -14.6300   18.1003 H           1 FSN       0.0587
     36 H6         16.1662  -14.6039   16.2539 H           1 FSN       0.0548
     37 H7         13.9708  -14.1729   11.8041 H           1 FSN       0.0632
     38 H8         13.5631  -11.2558   11.4169 H           1 FSN       0.0882
     39 H9         14.6492  -10.8013    9.6735 H           1 FSN       0.2057
     40 H10        14.2830  -13.3430    8.2673 H           1 FSN       0.0815
     41 H11        14.3014  -11.6730    7.6429 H           1 FSN       0.0815
     42 H12        11.9280  -12.8248    8.0953 H           1 FSN       0.0319
     43 H13        12.1850  -11.1574    8.6777 H           1 FSN       0.0319
     44 H14        11.5566  -12.2428   10.7296 H           1 FSN       0.0323
     45 H15        12.3484  -13.7563   10.2415 H           1 FSN       0.0323
     46 H16        16.4575  -12.7718    9.1522 H           1 FSN       0.1048
     47 H17        15.8968  -10.5019   12.1427 H           1 FSN       0.0559
     48 H18        17.3513   -8.7569   12.7376 H           1 FSN       0.0599
     49 H19        19.5274   -9.3741    9.1741 H           1 FSN       0.0599
     50 H20        18.1900  -11.2667    8.6857 H           1 FSN       0.0559
     51 H21        19.5982   -6.1461   12.4075 H           1 FSN       0.3180
     52 H22        18.6612   -7.3023   13.0285 H           1 FSN       0.3180
     53 H23        20.0425   -7.4300    9.4769 H           1 FSN       0.3180
     54 H24        20.3790   -6.2319   10.5055 H           1 FSN       0.3180
     55 H25        15.9705  -14.4014   10.6738 H           1 FSN       0.0654
@<TRIPOS>BOND
     1     1     2   2
     2     2     3  am
     3     2    30   1
     4     3     4   1
     5     3    12  am
     6     4     5   1
     7     5     6  ar
     8     5    11  ar
     9     6     7  ar
    10     7     8  ar
    11     8     9   1
    12     8    10  ar
    13    10    11  ar
    14    12    13   2
    15    12    14   1
    16    14    15   1
    17    14    30   1
    18    15    16   1
    19    15    19   1
    20    16    17   1
    21    16    20   1
    22    17    18   1
    23    18    19   1
    24    20    21   1
    25    20    30   1
    26    21    22  ar
    27    21    26  ar
    28    22    23  ar
    29    23    24  ar
    30    24    25  ar
    31    24    27   1
    32    25    26  ar
    33    27    28  ar
    34    27    29  ar
    35     4    31   1
    36     4    32   1
    37     6    33   1
    38     7    34   1
    39    10    35   1
    40    11    36   1
    41    14    37   1
    42    15    38   1
    43    16    39   1
    44    17    40   1
    45    17    41   1
    46    18    42   1
    47    18    43   1
    48    19    44   1
    49    19    45   1
    50    20    46   1
    51    22    47   1
    52    23    48   1
    53    25    49   1
    54    26    50   1
    55    28    51   1
    56    28    52   1
    57    29    53   1
    58    29    54   1
    59    30    55   1
@<TRIPOS>SUBSTRUCTURE
     1  FSN      2

