@<TRIPOS>MOLECULE
1oyt_ligand_026
    55    59
SMALL
GAST_HUCK
****
This file was generated by PARSER (from files_GN.cpp)

@<TRIPOS>ATOM
      1 O21        22.2253  -14.9119    5.9182 O.2         1 FSN      -0.3850
      2 C20        21.5212  -15.2984    6.8454 C.2         1 FSN       0.2221
      3 N19        20.7479  -16.3698    6.8153 N.am        1 FSN      -0.1734
      4 C23        20.5864  -17.2644    5.6890 C.3         1 FSN       0.0905
      5 C24        19.4873  -16.8500    4.7722 C.ar        1 FSN      -0.0199
      6 C32        18.1386  -17.1686    5.0775 C.ar        1 FSN      -0.0597
      7 C31        17.0993  -16.8507    4.1817 C.ar        1 FSN      -0.0348
      8 C30        17.3885  -16.2011    2.9685 C.ar        1 FSN       0.1248
      9 F29        16.4295  -15.9180    2.1289 F           1 FSN      -0.1893
     10 C26        18.7212  -15.8652    2.6574 C.ar        1 FSN      -0.0348
     11 C25        19.7618  -16.1893    3.5494 C.ar        1 FSN      -0.0597
     12 C17        20.1137  -16.4789    7.9713 C.2         1 FSN       0.2202
     13 O18        19.2976  -17.3458    8.2557 O.2         1 FSN      -0.3852
     14 C16        20.3872  -15.3736    8.8534 C.3         1 FSN       0.1237
     15 C15        20.9240  -15.7294   10.2673 C.3         1 FSN       0.0043
     16 N11        22.2439  -15.0736   10.4054 N.4         1 FSN       0.2554
     17 C12        22.0835  -14.0108   11.4274 C.3         1 FSN      -0.0294
     18 C13        21.0157  -14.5513   12.3912 C.3         1 FSN      -0.0072
     19 C14        20.0340  -15.2439   11.4430 C.3         1 FSN      -0.0022
     20 C10        22.7629  -14.6933    9.0535 C.3         1 FSN       0.0362
     21 C7         23.8732  -15.6031    8.5938 C.ar        1 FSN       0.0072
     22 C8         23.8511  -16.9970    8.8396 C.ar        1 FSN      -0.0548
     23 C9         24.8855  -17.8386    8.3957 C.ar        1 FSN      -0.0632
     24 C4         25.9992  -17.3314    7.6787 C.ar        1 FSN       0.0188
     25 C5         26.0054  -15.9362    7.4166 C.ar        1 FSN      -0.0632
     26 C6         24.9681  -15.0938    7.8591 C.ar        1 FSN      -0.0548
     27 C3         27.0440  -18.1704    7.2457 C.cat       1 FSN       0.2318
     28 N1         27.9238  -17.7995    6.3963 N.pl3       1 FSN      -0.2729
     29 N2         27.1974  -19.3632    7.6778 N.pl3       1 FSN      -0.2729
     30 C22        21.5081  -14.6236    8.1241 C.3         1 FSN       0.1316
     31 H1         20.3729  -18.2801    6.0321 H           1 FSN       0.0733
     32 H2         21.5406  -17.3319    5.1598 H           1 FSN       0.0733
     33 H3         17.9049  -17.6498    5.9485 H           1 FSN       0.0548
     34 H4         16.1359  -17.1079    4.4119 H           1 FSN       0.0587
     35 H5         18.9352  -15.3929    1.7763 H           1 FSN       0.0587
     36 H6         20.7249  -15.9489    3.2954 H           1 FSN       0.0548
     37 H7         19.4866  -14.7545    8.8946 H           1 FSN       0.0632
     38 H8         21.0806  -16.8062   10.3753 H           1 FSN       0.0882
     39 H9         22.8964  -15.7451   10.8178 H           1 FSN       0.2057
     40 H10        21.7326  -13.0733   10.9819 H           1 FSN       0.0815
     41 H11        23.0232  -13.8297   11.9534 H           1 FSN       0.0815
     42 H12        20.5335  -13.7593   12.9708 H           1 FSN       0.0319
     43 H13        21.4534  -15.2795   13.0754 H           1 FSN       0.0319
     44 H14        19.5209  -16.0754   11.9325 H           1 FSN       0.0323
     45 H15        19.2835  -14.5140   11.1254 H           1 FSN       0.0323
     46 H16        23.1703  -13.6786    9.1129 H           1 FSN       0.1048
     47 H17        23.0629  -17.4209    9.3327 H           1 FSN       0.0559
     48 H18        24.8038  -18.8358    8.5961 H           1 FSN       0.0599
     49 H19        26.7731  -15.5082    6.8880 H           1 FSN       0.0599
     50 H20        25.0258  -14.0978    7.6436 H           1 FSN       0.0559
     51 H21        28.6051  -18.3880    6.1407 H           1 FSN       0.3180
     52 H22        27.8954  -16.9441    6.0227 H           1 FSN       0.3180
     53 H23        26.6129  -19.7204    8.3138 H           1 FSN       0.3180
     54 H24        27.9100  -19.8853    7.3680 H           1 FSN       0.3180
     55 H25        21.2160  -13.5784    7.9781 H           1 FSN       0.0654
@<TRIPOS>BOND
     1     1     2   2
     2     2     3  am
     3     2    30   1
     4     3     4   1
     5     3    12  am
     6     4     5   1
     7     5     6  ar
     8     5    11  ar
     9     6     7  ar
    10     7     8  ar
    11     8     9   1
    12     8    10  ar
    13    10    11  ar
    14    12    13   2
    15    12    14   1
    16    14    15   1
    17    14    30   1
    18    15    16   1
    19    15    19   1
    20    16    17   1
    21    16    20   1
    22    17    18   1
    23    18    19   1
    24    20    21   1
    25    20    30   1
    26    21    22  ar
    27    21    26  ar
    28    22    23  ar
    29    23    24  ar
    30    24    25  ar
    31    24    27   1
    32    25    26  ar
    33    27    28  ar
    34    27    29  ar
    35     4    31   1
    36     4    32   1
    37     6    33   1
    38     7    34   1
    39    10    35   1
    40    11    36   1
    41    14    37   1
    42    15    38   1
    43    16    39   1
    44    17    40   1
    45    17    41   1
    46    18    42   1
    47    18    43   1
    48    19    44   1
    49    19    45   1
    50    20    46   1
    51    22    47   1
    52    23    48   1
    53    25    49   1
    54    26    50   1
    55    28    51   1
    56    28    52   1
    57    29    53   1
    58    29    54   1
    59    30    55   1
@<TRIPOS>SUBSTRUCTURE
     1  FSN      2

