@<TRIPOS>MOLECULE
1oyt_ligand_018
    55    59
SMALL
GAST_HUCK
****
This file was generated by PARSER (from files_GN.cpp)

@<TRIPOS>ATOM
      1 O21        12.5642  -14.0630   11.6174 O.2         1 FSN      -0.3850
      2 C20        12.3686  -13.2314   10.7346 C.2         1 FSN       0.2221
      3 N19        12.2091  -11.9336   10.9121 N.am        1 FSN      -0.1734
      4 C23        12.4398  -11.2334   12.1638 C.3         1 FSN       0.0905
      5 C24        13.8380  -11.2243   12.7003 C.ar        1 FSN      -0.0199
      6 C32        14.6625  -12.3763   12.6583 C.ar        1 FSN      -0.0597
      7 C31        15.9212  -12.3914   13.2941 C.ar        1 FSN      -0.0348
      8 C30        16.3799  -11.2591   13.9970 C.ar        1 FSN       0.1248
      9 F29        17.5359  -11.2931   14.6182 F           1 FSN      -0.1893
     10 C26        15.5840  -10.0993   14.0306 C.ar        1 FSN      -0.0348
     11 C25        14.3315  -10.0774   13.3839 C.ar        1 FSN      -0.0597
     12 C17        11.6869  -11.4232    9.8001 C.2         1 FSN       0.2202
     13 O18        11.3278  -10.2570    9.6595 O.2         1 FSN      -0.3852
     14 C16        11.3973  -12.4273    8.7976 C.3         1 FSN       0.1237
     15 C15        11.9496  -12.2699    7.3504 C.3         1 FSN       0.0043
     16 N11        12.9958  -13.3083    7.1657 N.4         1 FSN       0.2554
     17 C12        12.4814  -14.3014    6.1883 C.3         1 FSN      -0.0294
     18 C13        11.6299  -13.4587    5.2332 C.3         1 FSN      -0.0072
     19 C14        10.9328  -12.4822    6.1938 C.3         1 FSN      -0.0022
     20 C10        13.4080  -13.8421    8.4910 C.3         1 FSN       0.0362
     21 C7         14.7217  -13.2210    8.8932 C.ar        1 FSN       0.0072
     22 C8         15.9108  -13.9944    8.9098 C.ar        1 FSN      -0.0548
     23 C9         17.1593  -13.4232    9.2016 C.ar        1 FSN      -0.0632
     24 C4         17.2894  -12.0419    9.4982 C.ar        1 FSN       0.0188
     25 C5         16.1023  -11.2659    9.4868 C.ar        1 FSN      -0.0632
     26 C6         14.8587  -11.8416    9.1917 C.ar        1 FSN      -0.0548
     27 C3         18.5297  -11.4778    9.8098 C.cat       1 FSN       0.2318
     28 N1         19.6284  -11.9734    9.3820 N.pl3       1 FSN      -0.2729
     29 N2         18.6266  -10.4414   10.5498 N.pl3       1 FSN      -0.2729
     30 C22        12.1413  -13.6353    9.3801 C.3         1 FSN       0.1316
     31 H1         11.7833  -11.6673   12.9259 H           1 FSN       0.0733
     32 H2         12.0846  -10.1993   12.0543 H           1 FSN       0.0733
     33 H3         14.3540  -13.2214   12.1905 H           1 FSN       0.0548
     34 H4         16.5005  -13.2328   13.2649 H           1 FSN       0.0587
     35 H5         15.9068   -9.2720   14.5360 H           1 FSN       0.0587
     36 H6         13.7668   -9.2219   13.4444 H           1 FSN       0.0548
     37 H7         10.3171  -12.5963    8.8036 H           1 FSN       0.0632
     38 H8         12.4077  -11.2848    7.2206 H           1 FSN       0.0882
     39 H9         13.8042  -12.8633    6.7251 H           1 FSN       0.2057
     40 H10        11.8516  -15.0601    6.6673 H           1 FSN       0.0815
     41 H11        13.3027  -14.7981    5.6633 H           1 FSN       0.0815
     42 H12        10.9179  -14.0757    4.6739 H           1 FSN       0.0319
     43 H13        12.2736  -12.9186    4.5324 H           1 FSN       0.0319
     44 H14        10.6911  -11.5448    5.6864 H           1 FSN       0.0323
     45 H15        10.0046  -12.9405    6.5472 H           1 FSN       0.0323
     46 H16        13.5583  -14.9249    8.4221 H           1 FSN       0.1048
     47 H17        15.8749  -14.9944    8.6928 H           1 FSN       0.0559
     48 H18        17.9818  -14.0333    9.2071 H           1 FSN       0.0599
     49 H19        16.1388  -10.2563    9.6663 H           1 FSN       0.0599
     50 H20        14.0499  -11.2280    9.1665 H           1 FSN       0.0559
     51 H21        20.4436  -11.5823    9.6144 H           1 FSN       0.3180
     52 H22        19.6201  -12.7226    8.8230 H           1 FSN       0.3180
     53 H23        17.8567  -10.0372   10.8947 H           1 FSN       0.3180
     54 H24        19.4643  -10.0855   10.7579 H           1 FSN       0.3180
     55 H25        11.4890  -14.5165    9.3411 H           1 FSN       0.0654
@<TRIPOS>BOND
     1     1     2   2
     2     2     3  am
     3     2    30   1
     4     3     4   1
     5     3    12  am
     6     4     5   1
     7     5     6  ar
     8     5    11  ar
     9     6     7  ar
    10     7     8  ar
    11     8     9   1
    12     8    10  ar
    13    10    11  ar
    14    12    13   2
    15    12    14   1
    16    14    15   1
    17    14    30   1
    18    15    16   1
    19    15    19   1
    20    16    17   1
    21    16    20   1
    22    17    18   1
    23    18    19   1
    24    20    21   1
    25    20    30   1
    26    21    22  ar
    27    21    26  ar
    28    22    23  ar
    29    23    24  ar
    30    24    25  ar
    31    24    27   1
    32    25    26  ar
    33    27    28  ar
    34    27    29  ar
    35     4    31   1
    36     4    32   1
    37     6    33   1
    38     7    34   1
    39    10    35   1
    40    11    36   1
    41    14    37   1
    42    15    38   1
    43    16    39   1
    44    17    40   1
    45    17    41   1
    46    18    42   1
    47    18    43   1
    48    19    44   1
    49    19    45   1
    50    20    46   1
    51    22    47   1
    52    23    48   1
    53    25    49   1
    54    26    50   1
    55    28    51   1
    56    28    52   1
    57    29    53   1
    58    29    54   1
    59    30    55   1
@<TRIPOS>SUBSTRUCTURE
     1  FSN      2

