@<TRIPOS>MOLECULE
1oyt_ligand_005
    55    59
SMALL
GAST_HUCK
****
This file was generated by PARSER (from files_GN.cpp)

@<TRIPOS>ATOM
      1 O21        14.0792  -12.0394   17.7444 O.2         1 FSN      -0.3850
      2 C20        13.6148  -12.4563   18.7980 C.2         1 FSN       0.2221
      3 N19        13.4139  -13.7300   19.0862 N.am        1 FSN      -0.1734
      4 C23        13.7670  -14.8605   18.2433 C.3         1 FSN       0.0905
      5 C24        12.6484  -15.6734   17.6776 C.ar        1 FSN      -0.0199
      6 C32        11.2950  -15.5481   18.0866 C.ar        1 FSN      -0.0597
      7 C31        10.2892  -16.3624   17.5316 C.ar        1 FSN      -0.0348
      8 C30        10.6118  -17.3147   16.5494 C.ar        1 FSN       0.1248
      9 F29         9.6760  -18.0694   16.0363 F           1 FSN      -0.1893
     10 C26        11.9464  -17.4618   16.1356 C.ar        1 FSN      -0.0348
     11 C25        12.9529  -16.6539   16.6988 C.ar        1 FSN      -0.0597
     12 C17        12.8275  -13.8209   20.2671 C.2         1 FSN       0.2202
     13 O18        12.4942  -14.8661   20.8086 O.2         1 FSN      -0.3852
     14 C16        12.4385  -12.5373   20.7856 C.3         1 FSN       0.1237
     15 C15        12.9083  -12.1796   22.2231 C.3         1 FSN       0.0043
     16 N11        13.6119  -10.8835   22.1066 N.4         1 FSN       0.2554
     17 C12        12.6592   -9.8452   22.5703 C.3         1 FSN      -0.0294
     18 C13        11.9074  -10.5217   23.7258 C.3         1 FSN      -0.0072
     19 C14        11.7685  -11.9804   23.2626 C.3         1 FSN      -0.0022
     20 C10        14.1623  -10.7548   20.7215 C.3         1 FSN       0.0362
     21 C7         15.6176  -11.1348   20.5795 C.ar        1 FSN       0.0072
     22 C8         16.3954  -11.7019   21.6183 C.ar        1 FSN      -0.0548
     23 C9         17.7503  -12.0291   21.4302 C.ar        1 FSN      -0.0632
     24 C4         18.3993  -11.8114   20.1865 C.ar        1 FSN       0.0188
     25 C5         17.6259  -11.2183   19.1538 C.ar        1 FSN      -0.0632
     26 C6         16.2745  -10.8849   19.3509 C.ar        1 FSN      -0.0548
     27 C3         19.7400  -12.1856   19.9737 C.cat       1 FSN       0.2318
     28 N1         20.5503  -12.4227   20.9343 N.pl3       1 FSN      -0.2729
     29 N2         20.2325  -12.3295   18.8113 N.pl3       1 FSN      -0.2729
     30 C22        13.1537  -11.5604   19.8344 C.3         1 FSN       0.1316
     31 H1         14.4138  -15.5319   18.8119 H           1 FSN       0.0733
     32 H2         14.3730  -14.4955   17.4081 H           1 FSN       0.0733
     33 H3         11.0313  -14.8756   18.8038 H           1 FSN       0.0548
     34 H4          9.3239  -16.2668   17.8524 H           1 FSN       0.0587
     35 H5         12.1932  -18.1582   15.4249 H           1 FSN       0.0587
     36 H6         13.9185  -16.7843   16.3841 H           1 FSN       0.0548
     37 H7         11.3563  -12.4378   20.6672 H           1 FSN       0.0632
     38 H8         13.6165  -12.9245   22.6013 H           1 FSN       0.0882
     39 H9         14.3804  -10.8695   22.7786 H           1 FSN       0.2057
     40 H10        11.9519   -9.5588   21.7835 H           1 FSN       0.0815
     41 H11        13.1918   -8.9562   22.9172 H           1 FSN       0.0815
     42 H12        10.9334  -10.0539   23.9034 H           1 FSN       0.0319
     43 H13        12.5026  -10.4737   24.6423 H           1 FSN       0.0319
     44 H14        11.8710  -12.6704   24.1036 H           1 FSN       0.0323
     45 H15        10.7765  -12.1283   22.8243 H           1 FSN       0.0323
     46 H16        14.1102   -9.7005   20.4348 H           1 FSN       0.1048
     47 H17        15.9835  -11.8979   22.5305 H           1 FSN       0.0559
     48 H18        18.2531  -12.4526   22.2114 H           1 FSN       0.0599
     49 H19        18.0411  -11.0092   18.2474 H           1 FSN       0.0599
     50 H20        15.7641  -10.4527   18.5771 H           1 FSN       0.0559
     51 H21        21.4318  -12.6779   20.7459 H           1 FSN       0.3180
     52 H22        20.2780  -12.3398   21.8242 H           1 FSN       0.3180
     53 H23        19.7080  -12.1937   18.0474 H           1 FSN       0.3180
     54 H24        21.1278  -12.5905   18.7075 H           1 FSN       0.3180
     55 H25        12.4173  -10.8694   19.4065 H           1 FSN       0.0654
@<TRIPOS>BOND
     1     1     2   2
     2     2     3  am
     3     2    30   1
     4     3     4   1
     5     3    12  am
     6     4     5   1
     7     5     6  ar
     8     5    11  ar
     9     6     7  ar
    10     7     8  ar
    11     8     9   1
    12     8    10  ar
    13    10    11  ar
    14    12    13   2
    15    12    14   1
    16    14    15   1
    17    14    30   1
    18    15    16   1
    19    15    19   1
    20    16    17   1
    21    16    20   1
    22    17    18   1
    23    18    19   1
    24    20    21   1
    25    20    30   1
    26    21    22  ar
    27    21    26  ar
    28    22    23  ar
    29    23    24  ar
    30    24    25  ar
    31    24    27   1
    32    25    26  ar
    33    27    28  ar
    34    27    29  ar
    35     4    31   1
    36     4    32   1
    37     6    33   1
    38     7    34   1
    39    10    35   1
    40    11    36   1
    41    14    37   1
    42    15    38   1
    43    16    39   1
    44    17    40   1
    45    17    41   1
    46    18    42   1
    47    18    43   1
    48    19    44   1
    49    19    45   1
    50    20    46   1
    51    22    47   1
    52    23    48   1
    53    25    49   1
    54    26    50   1
    55    28    51   1
    56    28    52   1
    57    29    53   1
    58    29    54   1
    59    30    55   1
@<TRIPOS>SUBSTRUCTURE
     1  FSN      2

