@<TRIPOS>MOLECULE
1oyt_ligand_031
    55    59
SMALL
GAST_HUCK
****
This file was generated by PARSER (from files_GN.cpp)

@<TRIPOS>ATOM
      1 O21        16.8494  -15.3709   19.2096 O.2         1 FSN      -0.3850
      2 C20        16.3654  -14.6411   20.0650 C.2         1 FSN       0.2221
      3 N19        16.8515  -14.4739   21.2824 N.am        1 FSN      -0.1734
      4 C23        18.0565  -15.0722   21.8162 C.3         1 FSN       0.0905
      5 C24        17.8155  -15.8938   23.0390 C.ar        1 FSN      -0.0199
      6 C32        17.8683  -15.3106   24.3291 C.ar        1 FSN      -0.0597
      7 C31        17.5744  -16.0603   25.4797 C.ar        1 FSN      -0.0348
      8 C30        17.2896  -17.4326   25.3674 C.ar        1 FSN       0.1248
      9 F29        17.0401  -18.1364   26.4373 F           1 FSN      -0.1893
     10 C26        17.2771  -18.0416   24.0995 C.ar        1 FSN      -0.0348
     11 C25        17.5200  -17.2728   22.9429 C.ar        1 FSN      -0.0597
     12 C17        16.1028  -13.5902   21.9197 C.2         1 FSN       0.2202
     13 O18        16.3454  -13.1394   23.0282 O.2         1 FSN      -0.3852
     14 C16        14.9573  -13.1563   21.1625 C.3         1 FSN       0.1237
     15 C15        14.8439  -11.6214   20.9357 C.3         1 FSN       0.0043
     16 N11        14.8292  -11.4072   19.4719 N.4         1 FSN       0.2554
     17 C12        13.4626  -10.9531   19.1156 C.3         1 FSN      -0.0294
     18 C13        13.0175  -10.1255   20.3279 C.3         1 FSN      -0.0072
     19 C14        13.5831  -10.9220   21.5131 C.3         1 FSN      -0.0022
     20 C10        15.3619  -12.6195   18.7789 C.3         1 FSN       0.0362
     21 C7         16.7407  -12.3792   18.2326 C.ar        1 FSN       0.0072
     22 C8         17.7900  -11.8888   19.0426 C.ar        1 FSN      -0.0548
     23 C9         19.0806  -11.6885   18.5228 C.ar        1 FSN      -0.0632
     24 C4         19.3898  -11.9799   17.1700 C.ar        1 FSN       0.0188
     25 C5         18.3311  -12.4669   16.3607 C.ar        1 FSN      -0.0632
     26 C6         17.0396  -12.6676   16.8811 C.ar        1 FSN      -0.0548
     27 C3         20.6860  -11.7971   16.6595 C.cat       1 FSN       0.2318
     28 N1         21.0704  -12.2874   15.5446 N.pl3       1 FSN      -0.2729
     29 N2         21.5763  -11.1165   17.2751 N.pl3       1 FSN      -0.2729
     30 C22        15.2195  -13.8005   19.7918 C.3         1 FSN       0.1316
     31 H1         18.7616  -14.2708   22.0482 H           1 FSN       0.0733
     32 H2         18.5548  -15.6879   21.0614 H           1 FSN       0.0733
     33 H3         18.1086  -14.3253   24.4366 H           1 FSN       0.0548
     34 H4         17.5837  -15.6067   26.3960 H           1 FSN       0.0587
     35 H5         17.0805  -19.0423   24.0187 H           1 FSN       0.0587
     36 H6         17.4923  -17.7366   22.0316 H           1 FSN       0.0548
     37 H7         14.0526  -13.5765   21.6136 H           1 FSN       0.0632
     38 H8         15.7237  -11.1051   21.3349 H           1 FSN       0.0882
     39 H9         15.4507  -10.6199   19.2749 H           1 FSN       0.2057
     40 H10        12.7790  -11.7968   18.9756 H           1 FSN       0.0815
     41 H11        13.4772  -10.3455   18.2077 H           1 FSN       0.0815
     42 H12        11.9296  -10.0264   20.3787 H           1 FSN       0.0319
     43 H13        13.4702   -9.1299   20.2902 H           1 FSN       0.0319
     44 H14        13.8381  -10.2590   22.3452 H           1 FSN       0.0323
     45 H15        12.8349  -11.6384   21.8619 H           1 FSN       0.0323
     46 H16        14.7066  -12.8516   17.9319 H           1 FSN       0.1048
     47 H17        17.6287  -11.6767   20.0265 H           1 FSN       0.0559
     48 H18        19.7962  -11.3335   19.1615 H           1 FSN       0.0599
     49 H19        18.4838  -12.6798   15.3722 H           1 FSN       0.0599
     50 H20        16.3177  -13.0413   16.2603 H           1 FSN       0.0559
     51 H21        21.9428  -12.1366   15.2400 H           1 FSN       0.3180
     52 H22        20.4882  -12.8019   15.0264 H           1 FSN       0.3180
     53 H23        21.3918  -10.7299   18.1032 H           1 FSN       0.3180
     54 H24        22.4181  -10.9966   16.8913 H           1 FSN       0.3180
     55 H25        14.3718  -14.4355   19.5098 H           1 FSN       0.0654
@<TRIPOS>BOND
     1     1     2   2
     2     2     3  am
     3     2    30   1
     4     3     4   1
     5     3    12  am
     6     4     5   1
     7     5     6  ar
     8     5    11  ar
     9     6     7  ar
    10     7     8  ar
    11     8     9   1
    12     8    10  ar
    13    10    11  ar
    14    12    13   2
    15    12    14   1
    16    14    15   1
    17    14    30   1
    18    15    16   1
    19    15    19   1
    20    16    17   1
    21    16    20   1
    22    17    18   1
    23    18    19   1
    24    20    21   1
    25    20    30   1
    26    21    22  ar
    27    21    26  ar
    28    22    23  ar
    29    23    24  ar
    30    24    25  ar
    31    24    27   1
    32    25    26  ar
    33    27    28  ar
    34    27    29  ar
    35     4    31   1
    36     4    32   1
    37     6    33   1
    38     7    34   1
    39    10    35   1
    40    11    36   1
    41    14    37   1
    42    15    38   1
    43    16    39   1
    44    17    40   1
    45    17    41   1
    46    18    42   1
    47    18    43   1
    48    19    44   1
    49    19    45   1
    50    20    46   1
    51    22    47   1
    52    23    48   1
    53    25    49   1
    54    26    50   1
    55    28    51   1
    56    28    52   1
    57    29    53   1
    58    29    54   1
    59    30    55   1
@<TRIPOS>SUBSTRUCTURE
     1  FSN      2

