@<TRIPOS>MOLECULE
1oyt_ligand_065
    55    59
SMALL
GAST_HUCK
****
This file was generated by PARSER (from files_GN.cpp)

@<TRIPOS>ATOM
      1 O21        12.6276   -6.6044   26.4404 O.2         1 FSN      -0.3850
      2 C20        13.3791   -6.3276   25.5200 C.2         1 FSN       0.2221
      3 N19        14.5458   -5.7698   25.7340 N.am        1 FSN      -0.1734
      4 C23        15.1573   -5.5517   27.0301 C.3         1 FSN       0.0905
      5 C24        16.6147   -5.9059   27.0652 C.ar        1 FSN      -0.0199
      6 C32        17.5895   -4.9239   27.3403 C.ar        1 FSN      -0.0597
      7 C31        18.9515   -5.2361   27.3204 C.ar        1 FSN      -0.0348
      8 C30        19.3598   -6.5382   26.9993 C.ar        1 FSN       0.1248
      9 F29        20.6283   -6.8362   26.9637 F           1 FSN      -0.1893
     10 C26        18.3984   -7.5169   26.6923 C.ar        1 FSN      -0.0348
     11 C25        17.0344   -7.2069   26.7219 C.ar        1 FSN      -0.0597
     12 C17        15.0983   -5.4575   24.5813 C.2         1 FSN       0.2202
     13 O18        16.1934   -4.9192   24.4490 O.2         1 FSN      -0.3852
     14 C16        14.3097   -5.8878   23.4513 C.3         1 FSN       0.1237
     15 C15        14.9206   -7.0434   22.6031 C.3         1 FSN       0.0043
     16 N11        14.2837   -8.2756   23.0784 N.4         1 FSN       0.2554
     17 C12        14.4073   -9.2545   21.9687 C.3         1 FSN      -0.0294
     18 C13        14.6295   -8.4695   20.6686 C.3         1 FSN      -0.0072
     19 C14        14.6453   -6.9953   21.0882 C.3         1 FSN      -0.0022
     20 C10        12.9128   -7.9150   23.5430 C.3         1 FSN       0.0362
     21 C7         12.2380   -8.9037   24.4456 C.ar        1 FSN       0.0072
     22 C8         12.6373  -10.2523   24.5523 C.ar        1 FSN      -0.0548
     23 C9         11.9655  -11.1512   25.3959 C.ar        1 FSN      -0.0632
     24 C4         10.8574  -10.7465   26.1790 C.ar        1 FSN       0.0188
     25 C5         10.4571   -9.3934   26.0673 C.ar        1 FSN      -0.0632
     26 C6         11.0959   -8.5173   25.1799 C.ar        1 FSN      -0.0548
     27 C3         10.1758  -11.6444   27.0153 C.cat       1 FSN       0.2318
     28 N1         10.3751  -12.9042   26.9941 N.pl3       1 FSN      -0.2729
     29 N2          9.2825  -11.2675   27.8574 N.pl3       1 FSN      -0.2729
     30 C22        13.0590   -6.4711   24.1195 C.3         1 FSN       0.1316
     31 H1         14.6521   -6.1238   27.8250 H           1 FSN       0.0733
     32 H2         15.0050   -4.4955   27.2905 H           1 FSN       0.0733
     33 H3         17.3037   -3.9738   27.5658 H           1 FSN       0.0548
     34 H4         19.6350   -4.5138   27.5397 H           1 FSN       0.0587
     35 H5         18.6878   -8.4604   26.4484 H           1 FSN       0.0587
     36 H6         16.3520   -7.9373   26.4928 H           1 FSN       0.0548
     37 H7         14.0885   -5.0000   22.8462 H           1 FSN       0.0632
     38 H8         16.0043   -7.1166   22.7386 H           1 FSN       0.0882
     39 H9         14.8030   -8.6086   23.8875 H           1 FSN       0.2057
     40 H10        13.5251   -9.8904   21.8779 H           1 FSN       0.0815
     41 H11        15.2666   -9.8971   22.1705 H           1 FSN       0.0815
     42 H12        13.8301   -8.6599   19.9481 H           1 FSN       0.0319
     43 H13        15.5877   -8.7440   20.2262 H           1 FSN       0.0319
     44 H14        15.4099   -6.4256   20.5552 H           1 FSN       0.0323
     45 H15        13.6749   -6.5428   20.8836 H           1 FSN       0.0323
     46 H16        12.2697   -7.8346   22.6607 H           1 FSN       0.1048
     47 H17        13.4265  -10.6122   24.0264 H           1 FSN       0.0559
     48 H18        12.3052  -12.1120   25.4307 H           1 FSN       0.0599
     49 H19         9.6651   -9.0216   26.5956 H           1 FSN       0.0599
     50 H20        10.7679   -7.5471   25.1511 H           1 FSN       0.0559
     51 H21         9.8899  -13.4655   27.5641 H           1 FSN       0.3180
     52 H22        10.9972  -13.2755   26.4047 H           1 FSN       0.3180
     53 H23         9.0667  -10.3647   27.9473 H           1 FSN       0.3180
     54 H24         8.8525  -11.8965   28.3987 H           1 FSN       0.3180
     55 H25        12.1787   -5.8634   23.8883 H           1 FSN       0.0654
@<TRIPOS>BOND
     1     1     2   2
     2     2     3  am
     3     2    30   1
     4     3     4   1
     5     3    12  am
     6     4     5   1
     7     5     6  ar
     8     5    11  ar
     9     6     7  ar
    10     7     8  ar
    11     8     9   1
    12     8    10  ar
    13    10    11  ar
    14    12    13   2
    15    12    14   1
    16    14    15   1
    17    14    30   1
    18    15    16   1
    19    15    19   1
    20    16    17   1
    21    16    20   1
    22    17    18   1
    23    18    19   1
    24    20    21   1
    25    20    30   1
    26    21    22  ar
    27    21    26  ar
    28    22    23  ar
    29    23    24  ar
    30    24    25  ar
    31    24    27   1
    32    25    26  ar
    33    27    28  ar
    34    27    29  ar
    35     4    31   1
    36     4    32   1
    37     6    33   1
    38     7    34   1
    39    10    35   1
    40    11    36   1
    41    14    37   1
    42    15    38   1
    43    16    39   1
    44    17    40   1
    45    17    41   1
    46    18    42   1
    47    18    43   1
    48    19    44   1
    49    19    45   1
    50    20    46   1
    51    22    47   1
    52    23    48   1
    53    25    49   1
    54    26    50   1
    55    28    51   1
    56    28    52   1
    57    29    53   1
    58    29    54   1
    59    30    55   1
@<TRIPOS>SUBSTRUCTURE
     1  FSN      2

