@<TRIPOS>MOLECULE
1oyt_ligand_053
    55    59
SMALL
GAST_HUCK
****
This file was generated by PARSER (from files_GN.cpp)

@<TRIPOS>ATOM
      1 O21        12.1986  -13.3614   23.8993 O.2         1 FSN      -0.3850
      2 C20        11.8981  -12.1746   23.8755 C.2         1 FSN       0.2221
      3 N19        11.7494  -11.4166   24.9511 N.am        1 FSN      -0.1734
      4 C23        11.9549  -11.8605   26.3113 C.3         1 FSN       0.0905
      5 C24        11.2375  -13.0659   26.7876 C.ar        1 FSN      -0.0199
      6 C32        11.5928  -13.6058   28.0467 C.ar        1 FSN      -0.0597
      7 C31        10.9290  -14.7464   28.5555 C.ar        1 FSN      -0.0348
      8 C30         9.8979  -15.3403   27.8187 C.ar        1 FSN       0.1248
      9 F29         9.2766  -16.3897   28.3018 F           1 FSN      -0.1893
     10 C26         9.5275  -14.8162   26.5775 C.ar        1 FSN      -0.0348
     11 C25        10.1963  -13.6972   26.0588 C.ar        1 FSN      -0.0597
     12 C17        11.4617  -10.1762   24.6162 C.2         1 FSN       0.2202
     13 O18        11.3269   -9.2104   25.3678 O.2         1 FSN      -0.3852
     14 C16        11.2964  -10.0482   23.1916 C.3         1 FSN       0.1237
     15 C15        12.3190   -9.1126   22.5006 C.3         1 FSN       0.0043
     16 N11        12.7959   -9.8628   21.3133 N.4         1 FSN       0.2554
     17 C12        12.1724   -9.2387   20.1116 C.3         1 FSN      -0.0294
     18 C13        11.9683   -7.7631   20.4759 C.3         1 FSN      -0.0072
     19 C14        11.7639   -7.7535   22.0037 C.3         1 FSN      -0.0022
     20 C10        12.5717  -11.3284   21.5190 C.3         1 FSN       0.0362
     21 C7         13.8794  -12.0576   21.6195 C.ar        1 FSN       0.0072
     22 C8         13.9737  -13.4197   21.2558 C.ar        1 FSN      -0.0548
     23 C9         15.1914  -14.1347   21.3704 C.ar        1 FSN      -0.0632
     24 C4         16.3741  -13.5050   21.8430 C.ar        1 FSN       0.0188
     25 C5         16.2744  -12.1237   22.1579 C.ar        1 FSN      -0.0632
     26 C6         15.0541  -11.4240   22.0575 C.ar        1 FSN      -0.0548
     27 C3         17.5916  -14.2010   21.9992 C.cat       1 FSN       0.2318
     28 N1         17.7632  -15.4154   21.6215 N.pl3       1 FSN      -0.2729
     29 N2         18.6333  -13.6917   22.5309 N.pl3       1 FSN      -0.2729
     30 C22        11.5464  -11.4677   22.6773 C.3         1 FSN       0.1316
     31 H1         11.7097  -11.0601   27.0048 H           1 FSN       0.0733
     32 H2         13.0201  -12.0211   26.4243 H           1 FSN       0.0733
     33 H3         12.3353  -13.1906   28.6074 H           1 FSN       0.0548
     34 H4         11.2037  -15.1285   29.4705 H           1 FSN       0.0587
     35 H5          8.7810  -15.2525   26.0298 H           1 FSN       0.0587
     36 H6          9.8911  -13.3228   25.1676 H           1 FSN       0.0548
     37 H7         10.2595   -9.7511   22.9848 H           1 FSN       0.0632
     38 H8         13.1882   -8.9466   23.1656 H           1 FSN       0.0882
     39 H9         13.8060   -9.7100   21.2091 H           1 FSN       0.2057
     40 H10        11.2003   -9.6990   19.8722 H           1 FSN       0.0815
     41 H11        12.8482   -9.3543   19.2602 H           1 FSN       0.0815
     42 H12        11.1079   -7.3534   19.9446 H           1 FSN       0.0319
     43 H13        12.8634   -7.2034   20.1954 H           1 FSN       0.0319
     44 H14        12.3165   -6.9385   22.4672 H           1 FSN       0.0323
     45 H15        10.7077   -7.6177   22.2458 H           1 FSN       0.0323
     46 H16        12.0632  -11.7310   20.6314 H           1 FSN       0.1048
     47 H17        13.1629  -13.9373   20.9249 H           1 FSN       0.0559
     48 H18        15.1930  -15.1376   21.1280 H           1 FSN       0.0599
     49 H19        17.0909  -11.6120   22.4934 H           1 FSN       0.0599
     50 H20        15.0462  -10.4364   22.3218 H           1 FSN       0.0559
     51 H21        18.5849  -15.8310   21.7485 H           1 FSN       0.3180
     52 H22        17.0875  -15.8844   21.1925 H           1 FSN       0.3180
     53 H23        18.6413  -12.8053   22.8204 H           1 FSN       0.3180
     54 H24        19.4169  -14.1929   22.6209 H           1 FSN       0.3180
     55 H25        10.6340  -11.9046   22.2973 H           1 FSN       0.0654
@<TRIPOS>BOND
     1     1     2   2
     2     2     3  am
     3     2    30   1
     4     3     4   1
     5     3    12  am
     6     4     5   1
     7     5     6  ar
     8     5    11  ar
     9     6     7  ar
    10     7     8  ar
    11     8     9   1
    12     8    10  ar
    13    10    11  ar
    14    12    13   2
    15    12    14   1
    16    14    15   1
    17    14    30   1
    18    15    16   1
    19    15    19   1
    20    16    17   1
    21    16    20   1
    22    17    18   1
    23    18    19   1
    24    20    21   1
    25    20    30   1
    26    21    22  ar
    27    21    26  ar
    28    22    23  ar
    29    23    24  ar
    30    24    25  ar
    31    24    27   1
    32    25    26  ar
    33    27    28  ar
    34    27    29  ar
    35     4    31   1
    36     4    32   1
    37     6    33   1
    38     7    34   1
    39    10    35   1
    40    11    36   1
    41    14    37   1
    42    15    38   1
    43    16    39   1
    44    17    40   1
    45    17    41   1
    46    18    42   1
    47    18    43   1
    48    19    44   1
    49    19    45   1
    50    20    46   1
    51    22    47   1
    52    23    48   1
    53    25    49   1
    54    26    50   1
    55    28    51   1
    56    28    52   1
    57    29    53   1
    58    29    54   1
    59    30    55   1
@<TRIPOS>SUBSTRUCTURE
     1  FSN      2

