@<TRIPOS>MOLECULE
1p1q_ligand_019
    23    23
SMALL
GAST_HUCK
****
This file was generated by PARSER (from files_GN.cpp)

@<TRIPOS>ATOM
      1 N          46.3231   28.0205   41.0662 N.4         1 MOL       0.2333
      2 CA         44.9379   27.7789   40.6340 C.3         1 MOL       0.0299
      3 C          44.2011   29.0641   40.5914 C.2         1 MOL       0.0853
      4 OT1        44.1727   29.8895   41.6672 O.co2       1 MOL      -0.5642
      5 OT2        43.4339   29.3755   39.5204 O.co2       1 MOL      -0.5642
      6 CB         44.2597   26.7055   41.5394 C.3         1 MOL       0.0201
      7 CG         44.5116   25.3424   41.0732 C.2         1 MOL       0.0355
      8 CD1        43.7858   24.7096   40.1676 C.2         1 MOL       0.1867
      9 CD2        45.4830   24.4843   41.4016 C.2         1 MOL       0.1229
     10 CE2        46.5422   24.6687   42.3708 C.3         1 MOL       0.0048
     11 OE1        42.7951   25.1154   39.5756 O.2         1 MOL      -0.4259
     12 NE1        44.3098   23.5321   40.0013 N.am        1 MOL      -0.1399
     13 OE2        45.3762   23.3278   40.7360 O.3         1 MOL      -0.1759
     14 H1         46.8604   27.1603   40.9711 H           1 MOL       0.2011
     15 H2         46.3306   28.3192   42.0447 H           1 MOL       0.2011
     16 H3         46.7436   28.7385   40.4823 H           1 MOL       0.2011
     17 H4         44.9834   27.4074   39.6031 H           1 MOL       0.1035
     18 H5         43.1757   26.8711   41.5532 H           1 MOL       0.0385
     19 H6         44.5964   26.8186   42.5749 H           1 MOL       0.0385
     20 H7         47.1293   23.7523   42.4671 H           1 MOL       0.0455
     21 H8         46.1198   24.9093   43.3479 H           1 MOL       0.0455
     22 H9         47.2132   25.4682   42.0580 H           1 MOL       0.0455
     23 H10        43.9416   22.8752   39.3895 H           1 MOL       0.2313
@<TRIPOS>BOND
     1     1     2   1
     2     2     3   1
     3     2     6   1
     4     3     4  ar
     5     3     5  ar
     6     6     7   1
     7     7     8   1
     8     7     9   2
     9     8    11   2
    10     8    12  am
    11     9    10   1
    12     9    13   1
    13    12    13   1
    14     1    14   1
    15     1    15   1
    16     1    16   1
    17     2    17   1
    18     6    18   1
    19     6    19   1
    20    10    20   1
    21    10    21   1
    22    10    22   1
    23    12    23   1
@<TRIPOS>SUBSTRUCTURE
     1  MOL      2

