@<TRIPOS>MOLECULE
1p1q_ligand_004
    23    23
SMALL
GAST_HUCK
****
This file was generated by PARSER (from files_GN.cpp)

@<TRIPOS>ATOM
      1 N          47.1939   27.5788   41.5237 N.4         1 MOL       0.2333
      2 CA         45.8136   27.4407   42.0177 C.3         1 MOL       0.0299
      3 C          45.8293   26.6466   43.2626 C.2         1 MOL       0.0853
      4 OT1        45.7828   27.2585   44.4721 O.co2       1 MOL      -0.5642
      5 OT2        45.9635   25.2949   43.2360 O.co2       1 MOL      -0.5642
      6 CB         44.8923   26.8266   40.9220 C.3         1 MOL       0.0201
      7 CG         44.5873   27.7323   39.8112 C.2         1 MOL       0.0355
      8 CD1        44.8989   27.5505   38.5336 C.2         1 MOL       0.1867
      9 CD2        43.8138   28.8248   39.8275 C.2         1 MOL       0.1229
     10 CE2        43.1593   29.4390   40.9619 C.3         1 MOL       0.0048
     11 OE1        45.6764   26.7509   38.0397 O.2         1 MOL      -0.4259
     12 NE1        44.3051   28.5004   37.8543 N.am        1 MOL      -0.1399
     13 OE2        43.5896   29.3001   38.5955 O.3         1 MOL      -0.1759
     14 H1         47.1991   28.2286   40.7251 H           1 MOL       0.2011
     15 H2         47.5523   26.6696   41.2374 H           1 MOL       0.2011
     16 H3         47.7788   27.9612   42.2763 H           1 MOL       0.2011
     17 H4         45.4731   28.4410   42.2768 H           1 MOL       0.1035
     18 H5         43.9482   26.5156   41.3728 H           1 MOL       0.0385
     19 H6         45.3729   25.9282   40.5443 H           1 MOL       0.0385
     20 H7         42.5569   30.2881   40.6279 H           1 MOL       0.0455
     21 H8         43.8939   29.8224   41.6706 H           1 MOL       0.0455
     22 H9         42.5081   28.7245   41.4633 H           1 MOL       0.0455
     23 H10        44.3989   28.6203   36.8988 H           1 MOL       0.2313
@<TRIPOS>BOND
     1     1     2   1
     2     2     3   1
     3     2     6   1
     4     3     4  ar
     5     3     5  ar
     6     6     7   1
     7     7     8   1
     8     7     9   2
     9     8    11   2
    10     8    12  am
    11     9    10   1
    12     9    13   1
    13    12    13   1
    14     1    14   1
    15     1    15   1
    16     1    16   1
    17     2    17   1
    18     6    18   1
    19     6    19   1
    20    10    20   1
    21    10    21   1
    22    10    22   1
    23    12    23   1
@<TRIPOS>SUBSTRUCTURE
     1  MOL      2

