@<TRIPOS>MOLECULE
1p1q_ligand_026
    23    23
SMALL
GAST_HUCK
****
This file was generated by PARSER (from files_GN.cpp)

@<TRIPOS>ATOM
      1 N          48.0376   26.3474   42.8830 N.4         1 MOL       0.2333
      2 CA         46.7420   26.5935   42.2344 C.3         1 MOL       0.0299
      3 C          45.9632   27.5257   43.0649 C.2         1 MOL       0.0853
      4 OT1        45.5184   28.6949   42.5539 O.co2       1 MOL      -0.5642
      5 OT2        45.8531   27.3338   44.3978 O.co2       1 MOL      -0.5642
      6 CB         45.9555   25.2792   41.9698 C.3         1 MOL       0.0201
      7 CG         46.7109   24.2980   41.2005 C.2         1 MOL       0.0355
      8 CD1        47.1928   23.1469   41.6486 C.2         1 MOL       0.1867
      9 CD2        47.0625   24.3423   39.9110 C.2         1 MOL       0.1229
     10 CE2        46.7138   25.3220   38.9040 C.3         1 MOL       0.0048
     11 OE1        47.1624   22.6914   42.7788 O.2         1 MOL      -0.4259
     12 NE1        47.8127   22.5737   40.6565 N.am        1 MOL      -0.1399
     13 OE2        47.7903   23.2781   39.5579 O.3         1 MOL      -0.1759
     14 H1         48.6586   25.8575   42.2302 H           1 MOL       0.2011
     15 H2         47.8878   25.7679   43.7152 H           1 MOL       0.2011
     16 H3         48.4577   27.2449   43.1506 H           1 MOL       0.2011
     17 H4         46.9484   27.0879   41.2847 H           1 MOL       0.1035
     18 H5         45.0317   25.5016   41.4301 H           1 MOL       0.0385
     19 H6         45.6620   24.8516   42.9341 H           1 MOL       0.0385
     20 H7         47.0702   24.9894   37.9286 H           1 MOL       0.0455
     21 H8         47.1757   26.2840   39.1170 H           1 MOL       0.0455
     22 H9         45.6327   25.4432   38.8457 H           1 MOL       0.0455
     23 H10        48.2867   21.7292   40.7271 H           1 MOL       0.2313
@<TRIPOS>BOND
     1     1     2   1
     2     2     3   1
     3     2     6   1
     4     3     4  ar
     5     3     5  ar
     6     6     7   1
     7     7     8   1
     8     7     9   2
     9     8    11   2
    10     8    12  am
    11     9    10   1
    12     9    13   1
    13    12    13   1
    14     1    14   1
    15     1    15   1
    16     1    16   1
    17     2    17   1
    18     6    18   1
    19     6    19   1
    20    10    20   1
    21    10    21   1
    22    10    22   1
    23    12    23   1
@<TRIPOS>SUBSTRUCTURE
     1  MOL      2

