@<TRIPOS>MOLECULE
1p1q_ligand_008
    23    23
SMALL
GAST_HUCK
****
This file was generated by PARSER (from files_GN.cpp)

@<TRIPOS>ATOM
      1 N          44.8744   23.2065   39.9728 N.4         1 MOL       0.2333
      2 CA         45.0350   24.5189   39.3382 C.3         1 MOL       0.0299
      3 C          46.3834   25.0586   39.5969 C.2         1 MOL       0.0853
      4 OT1        46.8082   25.2785   40.8594 O.co2       1 MOL      -0.5642
      5 OT2        47.0745   25.6056   38.5674 O.co2       1 MOL      -0.5642
      6 CB         43.9162   25.4859   39.8284 C.3         1 MOL       0.0201
      7 CG         43.8494   26.7315   39.0685 C.2         1 MOL       0.0355
      8 CD1        43.7476   26.8188   37.7501 C.2         1 MOL       0.1867
      9 CD2        43.7969   27.9973   39.5062 C.2         1 MOL       0.1229
     10 CE2        43.7490   28.4512   40.8775 C.3         1 MOL       0.0048
     11 OE1        43.6175   25.9049   36.9482 O.2         1 MOL      -0.4259
     12 NE1        43.6582   28.0857   37.4542 N.am        1 MOL      -0.1399
     13 OE2        43.7015   28.8752   38.4998 O.3         1 MOL      -0.1759
     14 H1         43.9418   22.8555   39.7411 H           1 MOL       0.2011
     15 H2         44.9776   23.2857   40.9842 H           1 MOL       0.2011
     16 H3         45.5748   22.5590   39.6061 H           1 MOL       0.2011
     17 H4         44.9258   24.3358   38.2667 H           1 MOL       0.1035
     18 H5         44.0676   25.6847   40.8921 H           1 MOL       0.0385
     19 H6         42.9483   24.9887   39.7338 H           1 MOL       0.0385
     20 H7         43.6549   29.5387   40.9176 H           1 MOL       0.0455
     21 H8         44.6619   28.1660   41.4026 H           1 MOL       0.0455
     22 H9         42.8838   28.0141   41.3793 H           1 MOL       0.0455
     23 H10        43.5473   28.4152   36.5517 H           1 MOL       0.2313
@<TRIPOS>BOND
     1     1     2   1
     2     2     3   1
     3     2     6   1
     4     3     4  ar
     5     3     5  ar
     6     6     7   1
     7     7     8   1
     8     7     9   2
     9     8    11   2
    10     8    12  am
    11     9    10   1
    12     9    13   1
    13    12    13   1
    14     1    14   1
    15     1    15   1
    16     1    16   1
    17     2    17   1
    18     6    18   1
    19     6    19   1
    20    10    20   1
    21    10    21   1
    22    10    22   1
    23    12    23   1
@<TRIPOS>SUBSTRUCTURE
     1  MOL      2

