@<TRIPOS>MOLECULE
1p1q_ligand_007
    23    23
SMALL
GAST_HUCK
****
This file was generated by PARSER (from files_GN.cpp)

@<TRIPOS>ATOM
      1 N          42.5929   26.8216   43.2581 N.4         1 MOL       0.2333
      2 CA         43.8671   26.7013   42.5340 C.3         1 MOL       0.0299
      3 C          44.8107   27.7287   43.0184 C.2         1 MOL       0.0853
      4 OT1        44.7743   28.9756   42.4991 O.co2       1 MOL      -0.5642
      5 OT2        45.3266   27.5891   44.2642 O.co2       1 MOL      -0.5642
      6 CB         43.6096   26.7219   40.9961 C.3         1 MOL       0.0201
      7 CG         44.7795   26.5058   40.1406 C.2         1 MOL       0.0355
      8 CD1        45.6780   25.5303   40.2406 C.2         1 MOL       0.1867
      9 CD2        45.1018   27.1428   39.0030 C.2         1 MOL       0.1229
     10 CE2        44.3631   28.2101   38.3631 C.3         1 MOL       0.0048
     11 OE1        45.7833   24.6525   41.0866 O.2         1 MOL      -0.4259
     12 NE1        46.5001   25.6474   39.2357 N.am        1 MOL      -0.1399
     13 OE2        46.1977   26.6303   38.4220 O.3         1 MOL      -0.1759
     14 H1         41.9638   26.0704   42.9615 H           1 MOL       0.2011
     15 H2         42.1481   27.7241   43.0690 H           1 MOL       0.2011
     16 H3         42.7676   26.7340   44.2640 H           1 MOL       0.2011
     17 H4         44.2698   25.7259   42.8129 H           1 MOL       0.1035
     18 H5         43.1307   27.6753   40.7492 H           1 MOL       0.0385
     19 H6         42.8892   25.9374   40.7556 H           1 MOL       0.0385
     20 H7         44.8634   28.5247   37.4450 H           1 MOL       0.0455
     21 H8         44.2998   29.0701   39.0296 H           1 MOL       0.0455
     22 H9         43.3556   27.8747   38.1096 H           1 MOL       0.0455
     23 H10        47.2512   25.0491   39.0964 H           1 MOL       0.2313
@<TRIPOS>BOND
     1     1     2   1
     2     2     3   1
     3     2     6   1
     4     3     4  ar
     5     3     5  ar
     6     6     7   1
     7     7     8   1
     8     7     9   2
     9     8    11   2
    10     8    12  am
    11     9    10   1
    12     9    13   1
    13    12    13   1
    14     1    14   1
    15     1    15   1
    16     1    16   1
    17     2    17   1
    18     6    18   1
    19     6    19   1
    20    10    20   1
    21    10    21   1
    22    10    22   1
    23    12    23   1
@<TRIPOS>SUBSTRUCTURE
     1  MOL      2

