@<TRIPOS>MOLECULE
1p1q_ligand_028
    23    23
SMALL
GAST_HUCK
****
This file was generated by PARSER (from files_GN.cpp)

@<TRIPOS>ATOM
      1 N          45.0952   23.9194   39.1337 N.4         1 MOL       0.2333
      2 CA         44.8473   24.2249   40.5483 C.3         1 MOL       0.0299
      3 C          43.8014   25.2651   40.6888 C.2         1 MOL       0.0853
      4 OT1        43.6208   25.9153   41.8551 O.co2       1 MOL      -0.5642
      5 OT2        42.8335   25.4014   39.7505 O.co2       1 MOL      -0.5642
      6 CB         46.1776   24.5344   41.3072 C.3         1 MOL       0.0201
      7 CG         46.6882   25.9028   41.1993 C.2         1 MOL       0.0355
      8 CD1        46.8560   26.6077   40.0807 C.2         1 MOL       0.1867
      9 CD2        47.0576   26.7320   42.1812 C.2         1 MOL       0.1229
     10 CE2        47.1314   26.4378   43.5979 C.3         1 MOL       0.0048
     11 OE1        46.7607   26.2820   38.9111 O.2         1 MOL      -0.4259
     12 NE1        47.2392   27.7965   40.4314 N.am        1 MOL      -0.1399
     13 OE2        47.3959   27.9482   41.7203 O.3         1 MOL      -0.1759
     14 H1         45.8197   23.2039   39.0579 H           1 MOL       0.2011
     15 H2         45.3906   24.7475   38.6265 H           1 MOL       0.2011
     16 H3         44.2361   23.5762   38.7046 H           1 MOL       0.2011
     17 H4         44.4395   23.3021   40.9506 H           1 MOL       0.1035
     18 H5         46.9575   23.8562   40.9574 H           1 MOL       0.0385
     19 H6         46.0065   24.2926   42.3591 H           1 MOL       0.0385
     20 H7         47.4930   27.3009   44.1558 H           1 MOL       0.0455
     21 H8         47.8181   25.6081   43.7671 H           1 MOL       0.0455
     22 H9         46.1433   26.1733   43.9738 H           1 MOL       0.0455
     23 H10        47.4023   28.4998   39.7882 H           1 MOL       0.2313
@<TRIPOS>BOND
     1     1     2   1
     2     2     3   1
     3     2     6   1
     4     3     4  ar
     5     3     5  ar
     6     6     7   1
     7     7     8   1
     8     7     9   2
     9     8    11   2
    10     8    12  am
    11     9    10   1
    12     9    13   1
    13    12    13   1
    14     1    14   1
    15     1    15   1
    16     1    16   1
    17     2    17   1
    18     6    18   1
    19     6    19   1
    20    10    20   1
    21    10    21   1
    22    10    22   1
    23    12    23   1
@<TRIPOS>SUBSTRUCTURE
     1  MOL      2

