@<TRIPOS>MOLECULE
1p1q_ligand_011
    23    23
SMALL
GAST_HUCK
****
This file was generated by PARSER (from files_GN.cpp)

@<TRIPOS>ATOM
      1 N          44.7378   23.9922   39.7045 N.4         1 MOL       0.2333
      2 CA         44.4931   25.4365   39.5250 C.3         1 MOL       0.0299
      3 C          44.6398   25.7731   38.0867 C.2         1 MOL       0.0853
      4 OT1        45.7611   26.3594   37.6128 O.co2       1 MOL      -0.5642
      5 OT2        43.8312   25.1916   37.1703 O.co2       1 MOL      -0.5642
      6 CB         45.3693   26.3630   40.4382 C.3         1 MOL       0.0201
      7 CG         45.7883   25.7733   41.7088 C.2         1 MOL       0.0355
      8 CD1        46.6233   24.7487   41.8228 C.2         1 MOL       0.1867
      9 CD2        45.5542   26.1876   42.9576 C.2         1 MOL       0.1229
     10 CE2        44.7477   27.3104   43.3776 C.3         1 MOL       0.0048
     11 OE1        47.1656   24.1062   40.9270 O.2         1 MOL      -0.4259
     12 NE1        46.8421   24.5764   43.0945 N.am        1 MOL      -0.1399
     13 OE2        46.1975   25.4291   43.8592 O.3         1 MOL      -0.1759
     14 H1         44.6226   23.7450   40.6927 H           1 MOL       0.2011
     15 H2         45.6785   23.7437   39.3950 H           1 MOL       0.2011
     16 H3         44.0491   23.4621   39.1523 H           1 MOL       0.2011
     17 H4         43.4441   25.6117   39.7971 H           1 MOL       0.1035
     18 H5         44.7935   27.2809   40.6239 H           1 MOL       0.0385
     19 H6         46.2793   26.6811   39.9098 H           1 MOL       0.0385
     20 H7         44.7633   27.3862   44.4662 H           1 MOL       0.0455
     21 H8         43.7194   27.1710   43.0463 H           1 MOL       0.0455
     22 H9         45.1492   28.2361   42.9586 H           1 MOL       0.0455
     23 H10        47.4559   23.9141   43.4416 H           1 MOL       0.2313
@<TRIPOS>BOND
     1     1     2   1
     2     2     3   1
     3     2     6   1
     4     3     4  ar
     5     3     5  ar
     6     6     7   1
     7     7     8   1
     8     7     9   2
     9     8    11   2
    10     8    12  am
    11     9    10   1
    12     9    13   1
    13    12    13   1
    14     1    14   1
    15     1    15   1
    16     1    16   1
    17     2    17   1
    18     6    18   1
    19     6    19   1
    20    10    20   1
    21    10    21   1
    22    10    22   1
    23    12    23   1
@<TRIPOS>SUBSTRUCTURE
     1  MOL      2

