@<TRIPOS>MOLECULE
1p1q_ligand_018
    23    23
SMALL
GAST_HUCK
****
This file was generated by PARSER (from files_GN.cpp)

@<TRIPOS>ATOM
      1 N          46.7564   23.9733   40.6690 N.4         1 MOL       0.2333
      2 CA         46.2297   25.3196   40.3659 C.3         1 MOL       0.0299
      3 C          46.5771   25.7113   38.9806 C.2         1 MOL       0.0853
      4 OT1        47.3908   24.9714   38.1942 O.co2       1 MOL      -0.5642
      5 OT2        46.0202   26.8168   38.4371 O.co2       1 MOL      -0.5642
      6 CB         46.7572   26.3602   41.4189 C.3         1 MOL       0.0201
      7 CG         45.7998   26.6600   42.4799 C.2         1 MOL       0.0355
      8 CD1        44.6335   27.2708   42.3185 C.2         1 MOL       0.1867
      9 CD2        45.8991   26.4533   43.8005 C.2         1 MOL       0.1229
     10 CE2        46.9927   25.8154   44.4905 C.3         1 MOL       0.0048
     11 OE1        44.1125   27.6550   41.2834 O.2         1 MOL      -0.4259
     12 NE1        44.0775   27.3644   43.4951 N.am        1 MOL      -0.1399
     13 OE2        44.8399   26.9251   44.4676 O.3         1 MOL      -0.1759
     14 H1         46.4738   23.6745   41.6062 H           1 MOL       0.2011
     15 H2         47.7779   24.0040   40.6211 H           1 MOL       0.2011
     16 H3         46.4062   23.2978   39.9837 H           1 MOL       0.2011
     17 H4         45.1388   25.2273   40.4031 H           1 MOL       0.1035
     18 H5         47.0081   27.3175   40.9503 H           1 MOL       0.0385
     19 H6         47.6982   25.9903   41.8381 H           1 MOL       0.0385
     20 H7         46.7844   25.7543   45.5599 H           1 MOL       0.0455
     21 H8         47.9034   26.3982   44.3431 H           1 MOL       0.0455
     22 H9         47.1413   24.8024   44.1104 H           1 MOL       0.0455
     23 H10        43.1944   27.7380   43.6390 H           1 MOL       0.2313
@<TRIPOS>BOND
     1     1     2   1
     2     2     3   1
     3     2     6   1
     4     3     4  ar
     5     3     5  ar
     6     6     7   1
     7     7     8   1
     8     7     9   2
     9     8    11   2
    10     8    12  am
    11     9    10   1
    12     9    13   1
    13    12    13   1
    14     1    14   1
    15     1    15   1
    16     1    16   1
    17     2    17   1
    18     6    18   1
    19     6    19   1
    20    10    20   1
    21    10    21   1
    22    10    22   1
    23    12    23   1
@<TRIPOS>SUBSTRUCTURE
     1  MOL      2

