@<TRIPOS>MOLECULE
1p1q_ligand_002
    23    23
SMALL
GAST_HUCK
****
This file was generated by PARSER (from files_GN.cpp)

@<TRIPOS>ATOM
      1 N          46.9506   24.7137   42.4853 N.4         1 MOL       0.2333
      2 CA         46.9927   26.1854   42.5962 C.3         1 MOL       0.0299
      3 C          46.8604   26.5266   44.0315 C.2         1 MOL       0.0853
      4 OT1        47.7884   26.0588   44.9014 O.co2       1 MOL      -0.5642
      5 OT2        46.0847   27.5343   44.4726 O.co2       1 MOL      -0.5642
      6 CB         45.9995   26.9123   41.6168 C.3         1 MOL       0.0201
      7 CG         44.7985   26.1575   41.2634 C.2         1 MOL       0.0355
      8 CD1        44.7465   25.2148   40.3334 C.2         1 MOL       0.1867
      9 CD2        43.5486   26.2318   41.7440 C.2         1 MOL       0.1229
     10 CE2        43.0671   27.1237   42.7715 C.3         1 MOL       0.0048
     11 OE1        45.6394   24.8666   39.5751 O.2         1 MOL      -0.4259
     12 NE1        43.5283   24.7596   40.2995 N.am        1 MOL      -0.1399
     13 OE2        42.7289   25.3525   41.1553 O.3         1 MOL      -0.1759
     14 H1         47.1052   24.4364   41.5148 H           1 MOL       0.2011
     15 H2         46.0340   24.3785   42.7928 H           1 MOL       0.2011
     16 H3         47.6763   24.2861   43.0724 H           1 MOL       0.2011
     17 H4         48.0069   26.4854   42.3183 H           1 MOL       0.1035
     18 H5         46.5402   27.1326   40.6909 H           1 MOL       0.0385
     19 H6         45.7173   27.8956   42.0048 H           1 MOL       0.0385
     20 H7         42.0000   26.9694   42.9466 H           1 MOL       0.0455
     21 H8         43.2186   28.1605   42.4656 H           1 MOL       0.0455
     22 H9         43.5983   26.9366   43.7054 H           1 MOL       0.0455
     23 H10        43.2313   24.0805   39.6697 H           1 MOL       0.2313
@<TRIPOS>BOND
     1     1     2   1
     2     2     3   1
     3     2     6   1
     4     3     4  ar
     5     3     5  ar
     6     6     7   1
     7     7     8   1
     8     7     9   2
     9     8    11   2
    10     8    12  am
    11     9    10   1
    12     9    13   1
    13    12    13   1
    14     1    14   1
    15     1    15   1
    16     1    16   1
    17     2    17   1
    18     6    18   1
    19     6    19   1
    20    10    20   1
    21    10    21   1
    22    10    22   1
    23    12    23   1
@<TRIPOS>SUBSTRUCTURE
     1  MOL      2

