@<TRIPOS>MOLECULE
1p1q_ligand_025
    23    23
SMALL
GAST_HUCK
****
This file was generated by PARSER (from files_GN.cpp)

@<TRIPOS>ATOM
      1 N          47.3157   25.6894   42.3621 N.4         1 MOL       0.2333
      2 CA         46.1705   26.1083   41.5340 C.3         1 MOL       0.0299
      3 C          46.0425   25.1535   40.4190 C.2         1 MOL       0.0853
      4 OT1        46.9513   25.1670   39.4089 O.co2       1 MOL      -0.5642
      5 OT2        45.3481   24.0145   40.6092 O.co2       1 MOL      -0.5642
      6 CB         46.3220   27.5941   41.0805 C.3         1 MOL       0.0201
      7 CG         45.0793   28.1906   40.5755 C.2         1 MOL       0.0355
      8 CD1        44.1977   28.8727   41.2949 C.2         1 MOL       0.1867
      9 CD2        44.6073   28.2635   39.3233 C.2         1 MOL       0.1229
     10 CE2        45.1998   27.7181   38.1139 C.3         1 MOL       0.0048
     11 OE1        44.2362   29.1064   42.4957 O.2         1 MOL      -0.4259
     12 NE1        43.2716   29.2970   40.4924 N.am        1 MOL      -0.1399
     13 OE2        43.4574   28.9508   39.2477 O.3         1 MOL      -0.1759
     14 H1         47.3972   26.3104   43.1709 H           1 MOL       0.2011
     15 H2         48.1790   25.7255   41.8178 H           1 MOL       0.2011
     16 H3         47.1701   24.7312   42.6921 H           1 MOL       0.2011
     17 H4         45.2828   26.0280   42.1685 H           1 MOL       0.1035
     18 H5         47.1127   27.6837   40.3295 H           1 MOL       0.0385
     19 H6         46.6600   28.1788   41.9392 H           1 MOL       0.0385
     20 H7         44.6092   28.0217   37.2404 H           1 MOL       0.0455
     21 H8         45.2024   26.6295   38.1549 H           1 MOL       0.0455
     22 H9         46.2246   28.0922   37.9893 H           1 MOL       0.0455
     23 H10        42.5103   29.8244   40.7780 H           1 MOL       0.2313
@<TRIPOS>BOND
     1     1     2   1
     2     2     3   1
     3     2     6   1
     4     3     4  ar
     5     3     5  ar
     6     6     7   1
     7     7     8   1
     8     7     9   2
     9     8    11   2
    10     8    12  am
    11     9    10   1
    12     9    13   1
    13    12    13   1
    14     1    14   1
    15     1    15   1
    16     1    16   1
    17     2    17   1
    18     6    18   1
    19     6    19   1
    20    10    20   1
    21    10    21   1
    22    10    22   1
    23    12    23   1
@<TRIPOS>SUBSTRUCTURE
     1  MOL      2

