@<TRIPOS>MOLECULE
1p1q_ligand_031
    23    23
SMALL
GAST_HUCK
****
This file was generated by PARSER (from files_GN.cpp)

@<TRIPOS>ATOM
      1 N          43.6327   29.3115   41.2571 N.4         1 MOL       0.2333
      2 CA         44.6911   28.4235   40.7500 C.3         1 MOL       0.0299
      3 C          44.5474   28.2051   39.2943 C.2         1 MOL       0.0853
      4 OT1        43.4594   28.6376   38.6160 O.co2       1 MOL      -0.5642
      5 OT2        45.5535   27.6338   38.5904 O.co2       1 MOL      -0.5642
      6 CB         44.7871   27.1152   41.5919 C.3         1 MOL       0.0201
      7 CG         43.7729   26.1001   41.2973 C.2         1 MOL       0.0355
      8 CD1        43.8982   25.1263   40.4043 C.2         1 MOL       0.1867
      9 CD2        42.5884   25.8844   41.8778 C.2         1 MOL       0.1229
     10 CE2        41.9963   26.6315   42.9648 C.3         1 MOL       0.0048
     11 OE1        44.8442   24.8915   39.6686 O.2         1 MOL      -0.4259
     12 NE1        42.8169   24.4032   40.4596 N.am        1 MOL      -0.1399
     13 OE2        41.9555   24.8194   41.3566 O.3         1 MOL      -0.1759
     14 H1         43.7882   29.5113   42.2478 H           1 MOL       0.2011
     15 H2         42.7227   28.8663   41.1367 H           1 MOL       0.2011
     16 H3         43.6461   30.1867   40.7294 H           1 MOL       0.2011
     17 H4         45.6304   28.9635   40.8925 H           1 MOL       0.1035
     18 H5         44.7478   27.3736   42.6543 H           1 MOL       0.0385
     19 H6         45.7789   26.6792   41.4342 H           1 MOL       0.0385
     20 H7         41.0346   26.1975   43.2464 H           1 MOL       0.0455
     21 H8         41.8291   27.6656   42.6636 H           1 MOL       0.0455
     22 H9         42.6507   26.6151   43.8391 H           1 MOL       0.0455
     23 H10        42.6764   23.6249   39.8971 H           1 MOL       0.2313
@<TRIPOS>BOND
     1     1     2   1
     2     2     3   1
     3     2     6   1
     4     3     4  ar
     5     3     5  ar
     6     6     7   1
     7     7     8   1
     8     7     9   2
     9     8    11   2
    10     8    12  am
    11     9    10   1
    12     9    13   1
    13    12    13   1
    14     1    14   1
    15     1    15   1
    16     1    16   1
    17     2    17   1
    18     6    18   1
    19     6    19   1
    20    10    20   1
    21    10    21   1
    22    10    22   1
    23    12    23   1
@<TRIPOS>SUBSTRUCTURE
     1  MOL      2

