@<TRIPOS>MOLECULE
1ps3_ligand_002
    28    29
SMALL
GAST_HUCK
****
This file was generated by PARSER (from files_GN.cpp)

@<TRIPOS>ATOM
      1 C4         25.1569   64.3781    8.7796 C.3         1 KIF       0.1090
      2 O4         25.0828   64.1915    7.3632 O.3         1 KIF      -0.3868
      3 C3         26.0353   65.6364    9.0870 C.3         1 KIF       0.1133
      4 O3         26.4752   65.6449   10.4474 O.3         1 KIF      -0.3864
      5 C2         25.2847   66.9677    8.7979 C.3         1 KIF       0.1280
      6 O2         26.0290   68.0631    9.3332 O.3         1 KIF      -0.3847
      7 C1         23.8607   66.9452    9.4201 C.3         1 KIF       0.1599
      8 N9         22.9900   67.9084    8.8551 N.am        1 KIF      -0.2491
      9 C8         21.9488   67.3499    8.2933 C.2         1 KIF       0.2867
     10 O8         21.0348   67.9617    7.7577 O.2         1 KIF      -0.3583
     11 C7         22.0436   66.0352    8.4342 C.2         1 KIF       0.2894
     12 O7         21.2316   65.2472    7.9664 O.2         1 KIF      -0.3581
     13 N          23.1572   65.7464    9.0908 N.am        1 KIF      -0.2273
     14 C5         23.7104   64.4451    9.3797 C.3         1 KIF       0.0996
     15 C6         23.6505   64.0823   10.8992 C.3         1 KIF       0.0701
     16 O6         22.7035   64.8496   11.6435 O.3         1 KIF      -0.3926
     17 H1         25.6659   63.4939    9.1717 H           1 KIF       0.0644
     18 H2         24.6323   64.9866    7.0048 H           1 KIF       0.2100
     19 H3         26.9347   65.6033    8.4643 H           1 KIF       0.0647
     20 H4         27.0258   64.8426   10.5584 H           1 KIF       0.2100
     21 H5         25.2132   67.1082    7.7145 H           1 KIF       0.0665
     22 H6         25.3692   68.7604    9.5288 H           1 KIF       0.2101
     23 H7         23.9114   67.0703   10.5056 H           1 KIF       0.0861
     24 H8         23.1477   68.8612    8.8783 H           1 KIF       0.1890
     25 H9         23.1127   63.6832    8.8677 H           1 KIF       0.0610
     26 H10        24.6122   64.2336   11.3817 H           1 KIF       0.0581
     27 H11        23.4079   63.0229   11.0091 H           1 KIF       0.0581
     28 H12        21.8430   64.7312   11.1955 H           1 KIF       0.2095
@<TRIPOS>BOND
     1     1     2   1
     2     1     3   1
     3     1    14   1
     4     3     4   1
     5     3     5   1
     6     5     6   1
     7     5     7   1
     8     7     8   1
     9     7    13   1
    10     8     9  am
    11     9    10   2
    12     9    11   1
    13    11    12   2
    14    11    13  am
    15    13    14   1
    16    14    15   1
    17    15    16   1
    18     1    17   1
    19     2    18   1
    20     3    19   1
    21     4    20   1
    22     5    21   1
    23     6    22   1
    24     7    23   1
    25     8    24   1
    26    14    25   1
    27    15    26   1
    28    15    27   1
    29    16    28   1
@<TRIPOS>SUBSTRUCTURE
     1  KIF      1

