@<TRIPOS>MOLECULE
1ps3_ligand_010
    28    29
SMALL
GAST_HUCK
****
This file was generated by PARSER (from files_GN.cpp)

@<TRIPOS>ATOM
      1 C4         24.5595   64.8100    9.7799 C.3         1 KIF       0.1090
      2 O4         24.0264   64.3280   11.0180 O.3         1 KIF      -0.3868
      3 C3         23.3942   64.9509    8.7550 C.3         1 KIF       0.1133
      4 O3         23.9194   65.1919    7.4464 O.3         1 KIF      -0.3864
      5 C2         22.4155   66.0796    9.1938 C.3         1 KIF       0.1280
      6 O2         21.3634   66.2673    8.2451 O.3         1 KIF      -0.3847
      7 C1         23.1922   67.4061    9.4225 C.3         1 KIF       0.1599
      8 N9         22.4582   68.3668   10.1595 N.am        1 KIF      -0.2491
      9 C8         23.0617   68.6680   11.2788 C.2         1 KIF       0.2867
     10 O8         22.6263   69.4581   12.1039 O.2         1 KIF      -0.3583
     11 C7         24.1812   67.9495   11.3755 C.2         1 KIF       0.2894
     12 O7         24.9227   67.9545   12.3483 O.2         1 KIF      -0.3581
     13 N          24.3141   67.1920   10.2982 N.am        1 KIF      -0.2273
     14 C5         25.3024   66.1638   10.0402 C.3         1 KIF       0.0996
     15 C6         26.2930   66.6229    8.9235 C.3         1 KIF       0.0701
     16 O6         26.9161   65.5274    8.2531 O.3         1 KIF      -0.3926
     17 H1         25.2634   64.0502    9.4353 H           1 KIF       0.0644
     18 H2         23.6561   63.4406   10.8155 H           1 KIF       0.2100
     19 H3         22.8589   63.9993    8.7021 H           1 KIF       0.0647
     20 H4         23.1701   65.0304    6.8344 H           1 KIF       0.2100
     21 H5         21.9475   65.7761   10.1332 H           1 KIF       0.0665
     22 H6         21.7839   66.7486    7.4975 H           1 KIF       0.2101
     23 H7         23.5081   67.8399    8.4714 H           1 KIF       0.0861
     24 H8         21.6164   68.7547    9.8690 H           1 KIF       0.1890
     25 H9         25.9171   66.0095   10.9378 H           1 KIF       0.0610
     26 H10        27.0781   67.2382    9.3717 H           1 KIF       0.0581
     27 H11        25.7901   67.2298    8.1690 H           1 KIF       0.0581
     28 H12        27.4021   65.9437    7.4957 H           1 KIF       0.2095
@<TRIPOS>BOND
     1     1     2   1
     2     1     3   1
     3     1    14   1
     4     3     4   1
     5     3     5   1
     6     5     6   1
     7     5     7   1
     8     7     8   1
     9     7    13   1
    10     8     9  am
    11     9    10   2
    12     9    11   1
    13    11    12   2
    14    11    13  am
    15    13    14   1
    16    14    15   1
    17    15    16   1
    18     1    17   1
    19     2    18   1
    20     3    19   1
    21     4    20   1
    22     5    21   1
    23     6    22   1
    24     7    23   1
    25     8    24   1
    26    14    25   1
    27    15    26   1
    28    15    27   1
    29    16    28   1
@<TRIPOS>SUBSTRUCTURE
     1  KIF      1

