@<TRIPOS>MOLECULE
1ps3_ligand_006
    28    29
SMALL
GAST_HUCK
****
This file was generated by PARSER (from files_GN.cpp)

@<TRIPOS>ATOM
      1 C4         30.6090   65.4395    9.7400 C.3         1 KIF       0.1090
      2 O4         30.4844   64.1070    9.2413 O.3         1 KIF      -0.3868
      3 C3         32.0844   65.9425    9.5853 C.3         1 KIF       0.1133
      4 O3         32.2940   67.1388   10.3399 O.3         1 KIF      -0.3864
      5 C2         32.4566   66.2200    8.1008 C.3         1 KIF       0.1280
      6 O2         33.7534   66.8155    8.0270 O.3         1 KIF      -0.3847
      7 C1         31.3880   67.1345    7.4439 C.3         1 KIF       0.1599
      8 N9         31.4371   67.1288    6.0270 N.am        1 KIF      -0.2491
      9 C8         30.3124   66.6878    5.5215 C.2         1 KIF       0.2867
     10 O8         30.0519   66.6467    4.3287 O.2         1 KIF      -0.3583
     11 C7         29.4824   66.3655    6.5092 C.2         1 KIF       0.2894
     12 O7         28.3682   65.8882    6.3483 O.2         1 KIF      -0.3581
     13 N          30.0720   66.6140    7.6670 N.am        1 KIF      -0.2273
     14 C5         29.5613   66.3298    8.9897 C.3         1 KIF       0.0996
     15 C6         29.1518   67.6384    9.7368 C.3         1 KIF       0.0701
     16 O6         27.8249   67.5850   10.2521 O.3         1 KIF      -0.3926
     17 H1         30.3626   65.3904   10.8028 H           1 KIF       0.0644
     18 H2         31.1662   63.5806    9.7115 H           1 KIF       0.2100
     19 H3         32.7698   65.1872    9.9876 H           1 KIF       0.0647
     20 H4         32.1020   66.8967   11.2680 H           1 KIF       0.2100
     21 H5         32.4978   65.2681    7.5672 H           1 KIF       0.0665
     22 H6         33.9529   66.9635    7.0780 H           1 KIF       0.2101
     23 H7         31.4720   68.1573    7.8184 H           1 KIF       0.0861
     24 H8         32.1895   67.4539    5.5014 H           1 KIF       0.1890
     25 H9         28.6490   65.7302    8.8987 H           1 KIF       0.0610
     26 H10        29.1951   68.4982    9.0685 H           1 KIF       0.0581
     27 H11        29.8126   67.8345   10.5784 H           1 KIF       0.0581
     28 H12        27.2416   67.6084    9.4626 H           1 KIF       0.2095
@<TRIPOS>BOND
     1     1     2   1
     2     1     3   1
     3     1    14   1
     4     3     4   1
     5     3     5   1
     6     5     6   1
     7     5     7   1
     8     7     8   1
     9     7    13   1
    10     8     9  am
    11     9    10   2
    12     9    11   1
    13    11    12   2
    14    11    13  am
    15    13    14   1
    16    14    15   1
    17    15    16   1
    18     1    17   1
    19     2    18   1
    20     3    19   1
    21     4    20   1
    22     5    21   1
    23     6    22   1
    24     7    23   1
    25     8    24   1
    26    14    25   1
    27    15    26   1
    28    15    27   1
    29    16    28   1
@<TRIPOS>SUBSTRUCTURE
     1  KIF      1

