@<TRIPOS>MOLECULE
1ps3_ligand_017
    28    29
SMALL
GAST_HUCK
****
This file was generated by PARSER (from files_GN.cpp)

@<TRIPOS>ATOM
      1 C4         31.3352   66.9828    9.7909 C.3         1 KIF       0.1090
      2 O4         30.3387   67.7647   10.4560 O.3         1 KIF      -0.3868
      3 C3         31.0111   65.4755    9.9925 C.3         1 KIF       0.1133
      4 O3         32.1462   64.6918    9.6229 O.3         1 KIF      -0.3864
      5 C2         29.7408   65.0689    9.1893 C.3         1 KIF       0.1280
      6 O2         29.4982   63.6717    9.3317 O.3         1 KIF      -0.3847
      7 C1         29.8749   65.4920    7.6956 C.3         1 KIF       0.1599
      8 N9         28.6586   65.5281    6.9652 N.am        1 KIF      -0.2491
      9 C8         28.4167   66.7157    6.4763 C.2         1 KIF       0.2867
     10 O8         27.4536   66.9961    5.7782 O.2         1 KIF      -0.3583
     11 C7         29.3776   67.5373    6.8723 C.2         1 KIF       0.2894
     12 O7         29.3702   68.7403    6.6558 O.2         1 KIF      -0.3581
     13 N          30.2610   66.8667    7.5929 N.am        1 KIF      -0.2273
     14 C5         31.4129   67.3948    8.2834 C.3         1 KIF       0.0996
     15 C6         32.7206   66.9939    7.5451 C.3         1 KIF       0.0701
     16 O6         33.8684   67.3586    8.3044 O.3         1 KIF      -0.3926
     17 H1         32.2768   67.2100   10.2934 H           1 KIF       0.0644
     18 H2         29.5388   67.7244    9.8911 H           1 KIF       0.2100
     19 H3         30.8326   65.2935   11.0563 H           1 KIF       0.0647
     20 H4         31.9749   63.7970    9.9805 H           1 KIF       0.2100
     21 H5         28.8769   65.5823    9.6205 H           1 KIF       0.0665
     22 H6         30.2416   63.2279    8.8732 H           1 KIF       0.2101
     23 H7         30.5953   64.8526    7.1762 H           1 KIF       0.0861
     24 H8         28.1070   64.7601    6.7722 H           1 KIF       0.1890
     25 H9         31.3896   68.4835    8.2475 H           1 KIF       0.0610
     26 H10        32.7591   67.5179    6.5857 H           1 KIF       0.0581
     27 H11        32.7644   65.9245    7.3464 H           1 KIF       0.0581
     28 H12        34.5972   67.4025    7.6521 H           1 KIF       0.2095
@<TRIPOS>BOND
     1     1     2   1
     2     1     3   1
     3     1    14   1
     4     3     4   1
     5     3     5   1
     6     5     6   1
     7     5     7   1
     8     7     8   1
     9     7    13   1
    10     8     9  am
    11     9    10   2
    12     9    11   1
    13    11    12   2
    14    11    13  am
    15    13    14   1
    16    14    15   1
    17    15    16   1
    18     1    17   1
    19     2    18   1
    20     3    19   1
    21     4    20   1
    22     5    21   1
    23     6    22   1
    24     7    23   1
    25     8    24   1
    26    14    25   1
    27    15    26   1
    28    15    27   1
    29    16    28   1
@<TRIPOS>SUBSTRUCTURE
     1  KIF      1

