@<TRIPOS>MOLECULE
1ps3_ligand_005
    28    29
SMALL
GAST_HUCK
****
This file was generated by PARSER (from files_GN.cpp)

@<TRIPOS>ATOM
      1 C4         23.3947   66.0662   10.8195 C.3         1 KIF       0.1090
      2 O4         24.2165   65.0410   11.3896 O.3         1 KIF      -0.3868
      3 C3         24.0745   67.4507   11.0492 C.3         1 KIF       0.1133
      4 O3         23.1407   68.4912   10.7694 O.3         1 KIF      -0.3864
      5 C2         25.3570   67.6048   10.1794 C.3         1 KIF       0.1280
      6 O2         25.8931   68.9230   10.2883 O.3         1 KIF      -0.3847
      7 C1         25.0579   67.2714    8.6931 C.3         1 KIF       0.1599
      8 N9         26.2181   67.0060    7.9258 N.am        1 KIF      -0.2491
      9 C8         26.2005   65.7912    7.4426 C.2         1 KIF       0.2867
     10 O8         27.0968   65.3048    6.7695 O.2         1 KIF      -0.3583
     11 C7         25.0895   65.1774    7.8475 C.2         1 KIF       0.2894
     12 O7         24.8229   64.0075    7.6123 O.2         1 KIF      -0.3581
     13 N          24.3746   66.0154    8.5797 N.am        1 KIF      -0.2273
     14 C5         23.1560   65.7372    9.3072 C.3         1 KIF       0.0996
     15 C6         21.9329   66.4779    8.6739 C.3         1 KIF       0.0701
     16 O6         21.1695   65.6240    7.8264 O.3         1 KIF      -0.3926
     17 H1         22.4397   66.0326   11.3530 H           1 KIF       0.0644
     18 H2         24.2502   65.2386   12.3545 H           1 KIF       0.2100
     19 H3         24.3526   67.5380   12.1035 H           1 KIF       0.0647
     20 H4         23.6187   69.3279   10.9351 H           1 KIF       0.2100
     21 H5         26.1166   66.9094   10.5487 H           1 KIF       0.0665
     22 H6         26.1616   69.0160   11.2285 H           1 KIF       0.2101
     23 H7         24.4870   68.0769    8.2279 H           1 KIF       0.0861
     24 H8         26.9215   67.6511    7.7653 H           1 KIF       0.1890
     25 H9         22.9398   64.6650    9.2616 H           1 KIF       0.0610
     26 H10        22.2408   67.3435    8.0840 H           1 KIF       0.0581
     27 H11        21.2472   66.8398    9.4417 H           1 KIF       0.0581
     28 H12        21.7826   65.2945    7.1400 H           1 KIF       0.2095
@<TRIPOS>BOND
     1     1     2   1
     2     1     3   1
     3     1    14   1
     4     3     4   1
     5     3     5   1
     6     5     6   1
     7     5     7   1
     8     7     8   1
     9     7    13   1
    10     8     9  am
    11     9    10   2
    12     9    11   1
    13    11    12   2
    14    11    13  am
    15    13    14   1
    16    14    15   1
    17    15    16   1
    18     1    17   1
    19     2    18   1
    20     3    19   1
    21     4    20   1
    22     5    21   1
    23     6    22   1
    24     7    23   1
    25     8    24   1
    26    14    25   1
    27    15    26   1
    28    15    27   1
    29    16    28   1
@<TRIPOS>SUBSTRUCTURE
     1  KIF      1

