@<TRIPOS>MOLECULE
1ps3_ligand_012
    28    29
SMALL
GAST_HUCK
****
This file was generated by PARSER (from files_GN.cpp)

@<TRIPOS>ATOM
      1 C4         26.3978   66.3460    8.6617 C.3         1 KIF       0.1090
      2 O4         26.3975   66.9724    7.3774 O.3         1 KIF      -0.3868
      3 C3         26.1859   67.4411    9.7538 C.3         1 KIF       0.1133
      4 O3         26.5069   66.9301   11.0471 O.3         1 KIF      -0.3864
      5 C2         24.7311   67.9914    9.7373 C.3         1 KIF       0.1280
      6 O2         24.5243   68.8871   10.8275 O.3         1 KIF      -0.3847
      7 C1         23.7048   66.8271    9.7909 C.3         1 KIF       0.1599
      8 N9         22.3956   67.2092    9.4079 N.am        1 KIF      -0.2491
      9 C8         21.9965   66.5452    8.3536 C.2         1 KIF       0.2867
     10 O8         20.9082   66.6944    7.8193 O.2         1 KIF      -0.3583
     11 C7         22.9683   65.7246    7.9650 C.2         1 KIF       0.2894
     12 O7         22.9152   65.0093    6.9725 O.2         1 KIF      -0.3581
     13 N          23.9974   65.8496    8.7842 N.am        1 KIF      -0.2273
     14 C5         25.2992   65.2310    8.6688 C.3         1 KIF       0.0996
     15 C6         25.5107   64.1541    9.7695 C.3         1 KIF       0.0701
     16 O6         26.8663   63.7173    9.8005 O.3         1 KIF      -0.3926
     17 H1         27.3850   65.8935    8.7892 H           1 KIF       0.0644
     18 H2         27.0148   67.7292    7.4624 H           1 KIF       0.2100
     19 H3         26.8747   68.2696    9.5653 H           1 KIF       0.0647
     20 H4         26.5090   67.7134   11.6367 H           1 KIF       0.2100
     21 H5         24.5851   68.5584    8.8127 H           1 KIF       0.0665
     22 H6         23.7133   69.3868   10.5957 H           1 KIF       0.2101
     23 H7         23.6801   66.3728   10.7856 H           1 KIF       0.0861
     24 H8         21.8608   67.8721    9.8730 H           1 KIF       0.1890
     25 H9         25.3762   64.6975    7.7146 H           1 KIF       0.0610
     26 H10        24.8749   63.2838    9.6048 H           1 KIF       0.0581
     27 H11        25.2732   64.5728   10.7493 H           1 KIF       0.0581
     28 H12        27.2380   64.0968   10.6245 H           1 KIF       0.2095
@<TRIPOS>BOND
     1     1     2   1
     2     1     3   1
     3     1    14   1
     4     3     4   1
     5     3     5   1
     6     5     6   1
     7     5     7   1
     8     7     8   1
     9     7    13   1
    10     8     9  am
    11     9    10   2
    12     9    11   1
    13    11    12   2
    14    11    13  am
    15    13    14   1
    16    14    15   1
    17    15    16   1
    18     1    17   1
    19     2    18   1
    20     3    19   1
    21     4    20   1
    22     5    21   1
    23     6    22   1
    24     7    23   1
    25     8    24   1
    26    14    25   1
    27    15    26   1
    28    15    27   1
    29    16    28   1
@<TRIPOS>SUBSTRUCTURE
     1  KIF      1

