@<TRIPOS>MOLECULE
1ps3_ligand_014
    28    29
SMALL
GAST_HUCK
****
This file was generated by PARSER (from files_GN.cpp)

@<TRIPOS>ATOM
      1 C4         27.8975   65.7025   10.5365 C.3         1 KIF       0.1090
      2 O4         26.7337   66.5340   10.5765 O.3         1 KIF      -0.3868
      3 C3         29.1526   66.5144   10.9860 C.3         1 KIF       0.1133
      4 O3         30.3244   65.7719   10.6411 O.3         1 KIF      -0.3864
      5 C2         29.1355   66.8204   12.5099 C.3         1 KIF       0.1280
      6 O2         30.3554   67.4498   12.8949 O.3         1 KIF      -0.3847
      7 C1         28.9131   65.5175   13.3195 C.3         1 KIF       0.1599
      8 N9         28.5134   65.7564   14.6581 N.am        1 KIF      -0.2491
      9 C8         27.3214   65.2655   14.8891 C.2         1 KIF       0.2867
     10 O8         26.7321   65.3689   15.9524 O.2         1 KIF      -0.3583
     11 C7         26.8640   64.6937   13.7764 C.2         1 KIF       0.2894
     12 O7         25.7435   64.2134   13.6560 O.2         1 KIF      -0.3581
     13 N          27.7705   64.8045   12.8205 N.am        1 KIF      -0.2273
     14 C5         27.6340   64.4379   11.4221 C.3         1 KIF       0.0996
     15 C6         28.5575   63.2312   11.0820 C.3         1 KIF       0.0701
     16 O6         27.9491   62.0120   11.5032 O.3         1 KIF      -0.3926
     17 H1         28.0181   65.4016    9.4928 H           1 KIF       0.0644
     18 H2         26.8706   67.2214    9.8890 H           1 KIF       0.2100
     19 H3         29.1898   67.4594   10.4313 H           1 KIF       0.0647
     20 H4         30.9968   65.9994   11.3286 H           1 KIF       0.2100
     21 H5         28.3246   67.5275   12.7253 H           1 KIF       0.0665
     22 H6         30.4666   67.2636   13.8602 H           1 KIF       0.2101
     23 H7         29.8095   64.8900   13.3123 H           1 KIF       0.0861
     24 H8         29.0418   66.2405   15.3100 H           1 KIF       0.1890
     25 H9         26.6113   64.1044   11.2153 H           1 KIF       0.0610
     26 H10        29.5397   63.3383   11.5470 H           1 KIF       0.0581
     27 H11        28.7194   63.1571   10.0083 H           1 KIF       0.0581
     28 H12        28.6287   61.5543   12.0391 H           1 KIF       0.2095
@<TRIPOS>BOND
     1     1     2   1
     2     1     3   1
     3     1    14   1
     4     3     4   1
     5     3     5   1
     6     5     6   1
     7     5     7   1
     8     7     8   1
     9     7    13   1
    10     8     9  am
    11     9    10   2
    12     9    11   1
    13    11    12   2
    14    11    13  am
    15    13    14   1
    16    14    15   1
    17    15    16   1
    18     1    17   1
    19     2    18   1
    20     3    19   1
    21     4    20   1
    22     5    21   1
    23     6    22   1
    24     7    23   1
    25     8    24   1
    26    14    25   1
    27    15    26   1
    28    15    27   1
    29    16    28   1
@<TRIPOS>SUBSTRUCTURE
     1  KIF      1

