@<TRIPOS>MOLECULE
1ps3_ligand_009
    28    29
SMALL
GAST_HUCK
****
This file was generated by PARSER (from files_GN.cpp)

@<TRIPOS>ATOM
      1 C4         26.4078   64.5561   11.4217 C.3         1 KIF       0.1090
      2 O4         26.8428   65.9171   11.3615 O.3         1 KIF      -0.3868
      3 C3         27.6574   63.6343   11.5997 C.3         1 KIF       0.1133
      4 O3         27.3314   62.2737   11.3082 O.3         1 KIF      -0.3864
      5 C2         28.2592   63.7552   13.0323 C.3         1 KIF       0.1280
      6 O2         29.2963   62.7947   13.2240 O.3         1 KIF      -0.3847
      7 C1         27.1624   63.5721   14.1153 C.3         1 KIF       0.1599
      8 N9         27.5423   64.0363   15.4020 N.am        1 KIF      -0.2491
      9 C8         26.7612   65.0064   15.8068 C.2         1 KIF       0.2867
     10 O8         26.8735   65.5914   16.8735 O.2         1 KIF      -0.3583
     11 C7         25.8577   65.2569   14.8639 C.2         1 KIF       0.2894
     12 O7         25.0079   66.1348   14.9359 O.2         1 KIF      -0.3581
     13 N          26.0507   64.4346   13.8475 N.am        1 KIF      -0.2273
     14 C5         25.3596   64.4280   12.5785 C.3         1 KIF       0.0996
     15 C6         24.4320   63.1874   12.4550 C.3         1 KIF       0.0701
     16 O6         23.6334   63.0166   13.6243 O.3         1 KIF      -0.3926
     17 H1         25.9276   64.3346   10.4643 H           1 KIF       0.0644
     18 H2         27.3344   66.0015   10.5167 H           1 KIF       0.2100
     19 H3         28.4242   63.9323   10.8776 H           1 KIF       0.0647
     20 H4         27.5917   62.1331   10.3722 H           1 KIF       0.2100
     21 H5         28.7016   64.7503   13.1415 H           1 KIF       0.0665
     22 H6         30.1241   63.3182   13.2580 H           1 KIF       0.2101
     23 H7         26.8441   62.5274   14.1761 H           1 KIF       0.0861
     24 H8         28.2764   63.6729   15.9248 H           1 KIF       0.1890
     25 H9         24.6969   65.2986   12.5130 H           1 KIF       0.0610
     26 H10        25.0067   62.2759   12.3004 H           1 KIF       0.0581
     27 H11        23.7589   63.3158   11.6053 H           1 KIF       0.0581
     28 H12        24.2458   62.6699   14.3094 H           1 KIF       0.2095
@<TRIPOS>BOND
     1     1     2   1
     2     1     3   1
     3     1    14   1
     4     3     4   1
     5     3     5   1
     6     5     6   1
     7     5     7   1
     8     7     8   1
     9     7    13   1
    10     8     9  am
    11     9    10   2
    12     9    11   1
    13    11    12   2
    14    11    13  am
    15    13    14   1
    16    14    15   1
    17    15    16   1
    18     1    17   1
    19     2    18   1
    20     3    19   1
    21     4    20   1
    22     5    21   1
    23     6    22   1
    24     7    23   1
    25     8    24   1
    26    14    25   1
    27    15    26   1
    28    15    27   1
    29    16    28   1
@<TRIPOS>SUBSTRUCTURE
     1  KIF      1

