@<TRIPOS>MOLECULE
1ps3_ligand_015
    28    29
SMALL
GAST_HUCK
****
This file was generated by PARSER (from files_GN.cpp)

@<TRIPOS>ATOM
      1 C4         24.7264   61.9750   10.3413 C.3         1 KIF       0.1090
      2 O4         23.6411   62.2836   11.2154 O.3         1 KIF      -0.3868
      3 C3         24.2385   62.1878    8.8733 C.3         1 KIF       0.1133
      4 O3         25.1034   61.4832    7.9788 O.3         1 KIF      -0.3864
      5 C2         24.1235   63.6974    8.5049 C.3         1 KIF       0.1280
      6 O2         23.9288   63.8374    7.1001 O.3         1 KIF      -0.3847
      7 C1         25.3861   64.4913    8.9359 C.3         1 KIF       0.1599
      8 N9         25.1813   65.8895    9.0186 N.am        1 KIF      -0.2491
      9 C8         25.4363   66.3286   10.2278 C.2         1 KIF       0.2867
     10 O8         25.3673   67.5015   10.5596 O.2         1 KIF      -0.3583
     11 C7         25.7766   65.3036   10.9948 C.2         1 KIF       0.2894
     12 O7         26.0304   65.3898   12.1964 O.2         1 KIF      -0.3581
     13 N          25.7574   64.1908   10.2867 N.am        1 KIF      -0.2273
     14 C5         25.9685   62.8372   10.7446 C.3         1 KIF       0.0996
     15 C6         27.3310   62.2565   10.2549 C.3         1 KIF       0.0701
     16 O6         27.8323   61.2590   11.1383 O.3         1 KIF      -0.3926
     17 H1         24.9490   60.9136   10.4761 H           1 KIF       0.0644
     18 H2         23.9051   61.9352   12.0952 H           1 KIF       0.2100
     19 H3         23.2520   61.7254    8.7658 H           1 KIF       0.0647
     20 H4         24.5459   61.1978    7.2096 H           1 KIF       0.2100
     21 H5         23.2450   64.1034    9.0108 H           1 KIF       0.0665
     22 H6         23.3089   64.5863    6.9854 H           1 KIF       0.2101
     23 H7         26.2108   64.2900    8.2484 H           1 KIF       0.0861
     24 H8         24.9224   66.4534    8.2799 H           1 KIF       0.1890
     25 H9         26.0200   62.8397   11.8421 H           1 KIF       0.0610
     26 H10        28.0713   63.0502   10.1808 H           1 KIF       0.0581
     27 H11        27.2264   61.8023    9.2770 H           1 KIF       0.0581
     28 H12        28.6094   61.6663   11.5778 H           1 KIF       0.2095
@<TRIPOS>BOND
     1     1     2   1
     2     1     3   1
     3     1    14   1
     4     3     4   1
     5     3     5   1
     6     5     6   1
     7     5     7   1
     8     7     8   1
     9     7    13   1
    10     8     9  am
    11     9    10   2
    12     9    11   1
    13    11    12   2
    14    11    13  am
    15    13    14   1
    16    14    15   1
    17    15    16   1
    18     1    17   1
    19     2    18   1
    20     3    19   1
    21     4    20   1
    22     5    21   1
    23     6    22   1
    24     7    23   1
    25     8    24   1
    26    14    25   1
    27    15    26   1
    28    15    27   1
    29    16    28   1
@<TRIPOS>SUBSTRUCTURE
     1  KIF      1

