@<TRIPOS>MOLECULE
1ps3_ligand_008
    28    29
SMALL
GAST_HUCK
****
This file was generated by PARSER (from files_GN.cpp)

@<TRIPOS>ATOM
      1 C4         30.8524   65.3148    6.6480 C.3         1 KIF       0.1090
      2 O4         30.2606   64.0382    6.3916 O.3         1 KIF      -0.3868
      3 C3         30.1010   66.3947    5.8046 C.3         1 KIF       0.1133
      4 O3         30.8325   67.6185    5.7816 O.3         1 KIF      -0.3864
      5 C2         28.6646   66.6343    6.3536 C.3         1 KIF       0.1280
      6 O2         28.0013   67.6744    5.6366 O.3         1 KIF      -0.3847
      7 C1         28.7032   66.9339    7.8771 C.3         1 KIF       0.1599
      8 N9         27.4376   66.8208    8.4958 N.am        1 KIF      -0.2491
      9 C8         27.4414   65.8754    9.4028 C.2         1 KIF       0.2867
     10 O8         26.4625   65.5585   10.0636 O.2         1 KIF      -0.3583
     11 C7         28.6511   65.3182    9.4432 C.2         1 KIF       0.2894
     12 O7         28.9467   64.3686   10.1526 O.2         1 KIF      -0.3581
     13 N          29.4347   65.9155    8.5661 N.am        1 KIF      -0.2273
     14 C5         30.7921   65.5728    8.1916 C.3         1 KIF       0.0996
     15 C6         31.7903   66.6657    8.6806 C.3         1 KIF       0.0701
     16 O6         33.1239   66.3625    8.2919 O.3         1 KIF      -0.3926
     17 H1         31.8908   65.2655    6.3136 H           1 KIF       0.0644
     18 H2         30.8928   63.5492    5.8211 H           1 KIF       0.2100
     19 H3         30.0138   66.0558    4.7708 H           1 KIF       0.0647
     20 H4         31.7065   67.4086    5.3743 H           1 KIF       0.2100
     21 H5         28.0844   65.7182    6.1882 H           1 KIF       0.0665
     22 H6         28.0419   68.4612    6.2049 H           1 KIF       0.2101
     23 H7         29.1292   67.9216    8.0778 H           1 KIF       0.0861
     24 H8         26.6643   67.3651    8.2719 H           1 KIF       0.1890
     25 H9         31.0899   64.6445    8.6948 H           1 KIF       0.0610
     26 H10        31.7641   66.7145    9.7799 H           1 KIF       0.0581
     27 H11        31.5300   67.6473    8.2989 H           1 KIF       0.0581
     28 H12        33.6235   67.1866    8.4266 H           1 KIF       0.2095
@<TRIPOS>BOND
     1     1     2   1
     2     1     3   1
     3     1    14   1
     4     3     4   1
     5     3     5   1
     6     5     6   1
     7     5     7   1
     8     7     8   1
     9     7    13   1
    10     8     9  am
    11     9    10   2
    12     9    11   1
    13    11    12   2
    14    11    13  am
    15    13    14   1
    16    14    15   1
    17    15    16   1
    18     1    17   1
    19     2    18   1
    20     3    19   1
    21     4    20   1
    22     5    21   1
    23     6    22   1
    24     7    23   1
    25     8    24   1
    26    14    25   1
    27    15    26   1
    28    15    27   1
    29    16    28   1
@<TRIPOS>SUBSTRUCTURE
     1  KIF      1

