@<TRIPOS>MOLECULE
1ps3_ligand_003
    28    29
SMALL
GAST_HUCK
****
This file was generated by PARSER (from files_GN.cpp)

@<TRIPOS>ATOM
      1 C4         24.4089   67.1871    8.7898 C.3         1 KIF       0.1090
      2 O4         25.2588   67.7075    9.8176 O.3         1 KIF      -0.3868
      3 C3         25.0859   65.9235    8.1788 C.3         1 KIF       0.1133
      4 O3         24.5338   65.5952    6.8997 O.3         1 KIF      -0.3864
      5 C2         25.0335   64.7078    9.1437 C.3         1 KIF       0.1280
      6 O2         25.5165   63.5400    8.4808 O.3         1 KIF      -0.3847
      7 C1         23.5877   64.4911    9.6567 C.3         1 KIF       0.1599
      8 N9         23.5412   63.6769   10.8131 N.am        1 KIF      -0.2491
      9 C8         22.9917   64.3057   11.8186 C.2         1 KIF       0.2867
     10 O8         22.8713   63.8341   12.9389 O.2         1 KIF      -0.3583
     11 C7         22.6688   65.5383   11.4365 C.2         1 KIF       0.2894
     12 O7         22.1747   66.3811   12.1751 O.2         1 KIF      -0.3581
     13 N          23.0092   65.7026   10.1685 N.am        1 KIF      -0.2273
     14 C5         22.9927   66.9410    9.4173 C.3         1 KIF       0.0996
     15 C6         21.7899   67.0482    8.4231 C.3         1 KIF       0.0701
     16 O6         21.1908   65.8173    8.0242 O.3         1 KIF      -0.3926
     17 H1         24.3408   67.9627    8.0255 H           1 KIF       0.0644
     18 H2         26.0341   68.0893    9.3521 H           1 KIF       0.2100
     19 H3         26.1353   66.1576    7.9872 H           1 KIF       0.0647
     20 H4         23.7316   65.0419    7.0571 H           1 KIF       0.2100
     21 H5         25.6941   64.9018    9.9916 H           1 KIF       0.0665
     22 H6         24.9917   62.7872    8.8412 H           1 KIF       0.2101
     23 H7         22.9641   64.0566    8.8715 H           1 KIF       0.0861
     24 H8         23.8928   62.7725   10.8568 H           1 KIF       0.1890
     25 H9         22.8407   67.7751   10.1142 H           1 KIF       0.0610
     26 H10        22.0721   67.5977    7.5207 H           1 KIF       0.0581
     27 H11        20.9938   67.6164    8.8935 H           1 KIF       0.0581
     28 H12        21.8014   65.4111    7.3641 H           1 KIF       0.2095
@<TRIPOS>BOND
     1     1     2   1
     2     1     3   1
     3     1    14   1
     4     3     4   1
     5     3     5   1
     6     5     6   1
     7     5     7   1
     8     7     8   1
     9     7    13   1
    10     8     9  am
    11     9    10   2
    12     9    11   1
    13    11    12   2
    14    11    13  am
    15    13    14   1
    16    14    15   1
    17    15    16   1
    18     1    17   1
    19     2    18   1
    20     3    19   1
    21     4    20   1
    22     5    21   1
    23     6    22   1
    24     7    23   1
    25     8    24   1
    26    14    25   1
    27    15    26   1
    28    15    27   1
    29    16    28   1
@<TRIPOS>SUBSTRUCTURE
     1  KIF      1

