@<TRIPOS>MOLECULE
1q8t_ligand_082
    40    41
SMALL
GAST_HUCK
****
This file was generated by PARSER (from files_GN.cpp)

@<TRIPOS>ATOM
      1 O23        13.4172   10.6608   -0.8750 O.2         1 Y27      -0.3826
      2 C22        14.0524    9.8565   -0.1707 C.2         1 Y27       0.2105
      3 C31        15.4339    9.4600   -0.4880 C.3         1 Y27       0.0554
      4 C36        15.5400    8.2910   -1.5261 C.3         1 Y27      -0.0322
      5 C35        15.4443    8.7474   -3.0206 C.3         1 Y27      -0.0428
      6 C34        16.3203    9.9760   -3.4288 C.3         1 Y27       0.0020
      7 C33        16.1806   11.1013   -2.3516 C.3         1 Y27      -0.0428
      8 C32        16.4029   10.6230   -0.8874 C.3         1 Y27      -0.0322
      9 C41        17.7970    9.6804   -3.8878 C.3         1 Y27      -0.0244
     10 C42        18.5131    8.4300   -3.2919 C.3         1 Y27      -0.0215
     11 N43        17.8933    9.5393   -5.3471 N.4         1 Y27       0.2207
     12 N21        13.4452    9.3297    0.9090 N.am        1 Y27      -0.2247
     13 C14        12.2828    9.6959    1.4922 C.ar        1 Y27       0.0867
     14 C15        12.2037   10.8106    2.3725 C.ar        1 Y27      -0.0140
     15 C16        11.0040   11.0666    3.0635 C.ar        1 Y27      -0.0065
     16 N11         9.9190   10.2694    2.8583 N.ar        1 Y27      -0.3199
     17 C12         9.9514    9.2040    2.0280 C.ar        1 Y27      -0.0065
     18 C13        11.1267    8.8928    1.3197 C.ar        1 Y27      -0.0140
     19 H1         15.8427    9.0879    0.4656 H           1 Y27       0.0544
     20 H2         14.7676    7.5427   -1.3367 H           1 Y27       0.0293
     21 H3         16.4918    7.7811   -1.3558 H           1 Y27       0.0293
     22 H4         14.3816    8.9992   -3.1950 H           1 Y27       0.0271
     23 H5         15.6755    7.8855   -3.6557 H           1 Y27       0.0271
     24 H6         15.8313   10.3959   -4.3217 H           1 Y27       0.0355
     25 H7         15.1666   11.5235   -2.4243 H           1 Y27       0.0271
     26 H8         16.8725   11.9160   -2.5786 H           1 Y27       0.0271
     27 H9         17.4408   10.3049   -0.7709 H           1 Y27       0.0293
     28 H10        16.2801   11.4821   -0.2219 H           1 Y27       0.0293
     29 H11        18.4195   10.5460   -3.6472 H           1 Y27       0.0850
     30 H12        19.5628    8.4295   -3.5874 H           1 Y27       0.0284
     31 H13        18.0537    7.5168   -3.6910 H           1 Y27       0.0284
     32 H14        18.4706    8.4293   -2.2067 H           1 Y27       0.0284
     33 H15        17.5690   10.3938   -5.8049 H           1 Y27       0.1997
     34 H16        17.3275    8.7481   -5.6688 H           1 Y27       0.1997
     35 H17        18.8779    9.3808   -5.5932 H           1 Y27       0.1997
     36 H18        13.9087    8.5699    1.3224 H           1 Y27       0.2307
     37 H19        13.0173   11.3940    2.5492 H           1 Y27       0.0596
     38 H20        10.9394   11.8510    3.7121 H           1 Y27       0.0771
     39 H21         9.1053    8.6295    1.9006 H           1 Y27       0.0771
     40 H22        11.1562    8.0759    0.7064 H           1 Y27       0.0596
@<TRIPOS>BOND
     1     1     2   2
     2     2     3   1
     3     2    12  am
     4     3     4   1
     5     3     8   1
     6     4     5   1
     7     5     6   1
     8     6     7   1
     9     6     9   1
    10     7     8   1
    11     9    10   1
    12     9    11   1
    13    12    13   1
    14    13    14  ar
    15    13    18  ar
    16    14    15  ar
    17    15    16  ar
    18    16    17  ar
    19    17    18  ar
    20     3    19   1
    21     4    20   1
    22     4    21   1
    23     5    22   1
    24     5    23   1
    25     6    24   1
    26     7    25   1
    27     7    26   1
    28     8    27   1
    29     8    28   1
    30     9    29   1
    31    10    30   1
    32    10    31   1
    33    10    32   1
    34    11    33   1
    35    11    34   1
    36    11    35   1
    37    12    36   1
    38    14    37   1
    39    15    38   1
    40    17    39   1
    41    18    40   1
@<TRIPOS>SUBSTRUCTURE
     1  Y27      2

