@<TRIPOS>MOLECULE
1q8t_ligand_077
    40    41
SMALL
GAST_HUCK
****
This file was generated by PARSER (from files_GN.cpp)

@<TRIPOS>ATOM
      1 O23        19.4858    7.3680    5.2536 O.2         1 Y27      -0.3826
      2 C22        18.6710    8.0669    5.8501 C.2         1 Y27       0.2105
      3 C31        17.2344    7.8139    5.7208 C.3         1 Y27       0.0554
      4 C36        16.4594    9.0620    5.1862 C.3         1 Y27      -0.0322
      5 C35        14.9319    8.8020    5.1332 C.3         1 Y27      -0.0428
      6 C34        14.5830    7.5672    4.2457 C.3         1 Y27       0.0020
      7 C33        15.3575    6.3092    4.7553 C.3         1 Y27      -0.0428
      8 C32        16.8837    6.5638    4.8472 C.3         1 Y27      -0.0322
      9 C41        13.0316    7.3669    4.1138 C.3         1 Y27      -0.0244
     10 C42        12.6266    6.4465    2.9341 C.3         1 Y27      -0.0215
     11 N43        12.4015    6.8744    5.3474 N.4         1 Y27       0.2207
     12 N21        19.0797    9.0984    6.5830 N.am        1 Y27      -0.2247
     13 C14        20.3545    9.5510    6.7616 C.ar        1 Y27       0.0867
     14 C15        20.5752   10.9452    6.7184 C.ar        1 Y27      -0.0140
     15 C16        21.8741   11.4497    6.9168 C.ar        1 Y27      -0.0065
     16 N11        22.8938   10.5938    7.1843 N.ar        1 Y27      -0.3199
     17 C12        22.7210    9.2531    7.2664 C.ar        1 Y27      -0.0065
     18 C13        21.4442    8.6979    7.0519 C.ar        1 Y27      -0.0140
     19 H1         16.8614    7.6166    6.7302 H           1 Y27       0.0544
     20 H2         16.8248    9.3241    4.1897 H           1 Y27       0.0293
     21 H3         16.6260    9.9230    5.8375 H           1 Y27       0.0293
     22 H4         14.4435    9.6932    4.7334 H           1 Y27       0.0271
     23 H5         14.5605    8.6518    6.1514 H           1 Y27       0.0271
     24 H6         14.9585    7.7942    3.2444 H           1 Y27       0.0355
     25 H7         15.1968    5.4719    4.0721 H           1 Y27       0.0271
     26 H8         14.9911    6.0142    5.7453 H           1 Y27       0.0271
     27 H9         17.3552    5.6738    5.2731 H           1 Y27       0.0293
     28 H10        17.2814    6.6987    3.8370 H           1 Y27       0.0293
     29 H11        12.5861    8.3411    3.9056 H           1 Y27       0.0850
     30 H12        11.5415    6.4259    2.8348 H           1 Y27       0.0284
     31 H13        12.9755    5.4272    3.0939 H           1 Y27       0.0284
     32 H14        13.0453    6.8200    2.0004 H           1 Y27       0.0284
     33 H15        12.6290    7.4941    6.1293 H           1 Y27       0.1997
     34 H16        12.7265    5.9262    5.5575 H           1 Y27       0.1997
     35 H17        11.3868    6.8592    5.2172 H           1 Y27       0.1997
     36 H18        18.3837    9.6665    6.9446 H           1 Y27       0.2307
     37 H19        19.8062   11.5919    6.5178 H           1 Y27       0.0596
     38 H20        22.0561   12.4522    6.8594 H           1 Y27       0.0771
     39 H21        23.5163    8.6493    7.4772 H           1 Y27       0.0771
     40 H22        21.3133    7.6879    7.1299 H           1 Y27       0.0596
@<TRIPOS>BOND
     1     1     2   2
     2     2     3   1
     3     2    12  am
     4     3     4   1
     5     3     8   1
     6     4     5   1
     7     5     6   1
     8     6     7   1
     9     6     9   1
    10     7     8   1
    11     9    10   1
    12     9    11   1
    13    12    13   1
    14    13    14  ar
    15    13    18  ar
    16    14    15  ar
    17    15    16  ar
    18    16    17  ar
    19    17    18  ar
    20     3    19   1
    21     4    20   1
    22     4    21   1
    23     5    22   1
    24     5    23   1
    25     6    24   1
    26     7    25   1
    27     7    26   1
    28     8    27   1
    29     8    28   1
    30     9    29   1
    31    10    30   1
    32    10    31   1
    33    10    32   1
    34    11    33   1
    35    11    34   1
    36    11    35   1
    37    12    36   1
    38    14    37   1
    39    15    38   1
    40    17    39   1
    41    18    40   1
@<TRIPOS>SUBSTRUCTURE
     1  Y27      2

