@<TRIPOS>MOLECULE
1q8t_ligand_015
    40    41
SMALL
GAST_HUCK
****
This file was generated by PARSER (from files_GN.cpp)

@<TRIPOS>ATOM
      1 O23        18.1066    7.9323    1.1186 O.2         1 Y27      -0.3826
      2 C22        17.0819    8.4378    1.5726 C.2         1 Y27       0.2105
      3 C31        15.8172    7.7214    1.3520 C.3         1 Y27       0.0554
      4 C36        15.1276    7.1863    2.6435 C.3         1 Y27      -0.0322
      5 C35        14.3087    8.2468    3.4203 C.3         1 Y27      -0.0428
      6 C34        13.2951    9.0557    2.5420 C.3         1 Y27       0.0020
      7 C33        13.9667    9.5779    1.2314 C.3         1 Y27      -0.0428
      8 C32        14.8173    8.5238    0.4648 C.3         1 Y27      -0.0322
      9 C41        11.9085    8.3306    2.3417 C.3         1 Y27      -0.0244
     10 C42        10.7287    9.3271    2.1467 C.3         1 Y27      -0.0215
     11 N43        11.8599    7.3719    1.2296 N.4         1 Y27       0.2207
     12 N21        17.1342    9.5760    2.2608 N.am        1 Y27      -0.2247
     13 C14        18.2045   10.4102    2.4662 C.ar        1 Y27       0.0867
     14 C15        19.2026   10.6704    1.4927 C.ar        1 Y27      -0.0140
     15 C16        20.2371   11.5745    1.7883 C.ar        1 Y27      -0.0065
     16 N11        20.2624   12.2123    2.9817 N.ar        1 Y27      -0.3199
     17 C12        19.3115   12.0141    3.9318 C.ar        1 Y27      -0.0065
     18 C13        18.2578   11.1157    3.6874 C.ar        1 Y27      -0.0140
     19 H1         16.0541    6.8205    0.7682 H           1 Y27       0.0544
     20 H2         15.8832    6.7678    3.3145 H           1 Y27       0.0293
     21 H3         14.4538    6.3694    2.3738 H           1 Y27       0.0293
     22 H4         15.0034    8.9476    3.8874 H           1 Y27       0.0271
     23 H5         13.7830    7.7571    4.2398 H           1 Y27       0.0271
     24 H6         13.0718    9.9427    3.1402 H           1 Y27       0.0355
     25 H7         14.6201   10.4166    1.4842 H           1 Y27       0.0271
     26 H8         13.2080    9.9710    0.5536 H           1 Y27       0.0271
     27 H9         14.1423    7.8104   -0.0142 H           1 Y27       0.0293
     28 H10        15.3504    9.0253   -0.3497 H           1 Y27       0.0293
     29 H11        11.6724    7.7635    3.2457 H           1 Y27       0.0850
     30 H12         9.7871    8.7900    2.0567 H           1 Y27       0.0284
     31 H13        10.8779    9.9443    1.2588 H           1 Y27       0.0284
     32 H14        10.6560    9.9918    3.0187 H           1 Y27       0.0284
     33 H15        12.5044    6.5946    1.3800 H           1 Y27       0.1997
     34 H16        12.0836    7.8351    0.3434 H           1 Y27       0.1997
     35 H17        10.9141    6.9864    1.1577 H           1 Y27       0.1997
     36 H18        16.3209    9.8591    2.7000 H           1 Y27       0.2307
     37 H19        19.1633   10.2359    0.5707 H           1 Y27       0.0596
     38 H20        20.9648   11.7659    1.0942 H           1 Y27       0.0771
     39 H21        19.3697   12.5233    4.8143 H           1 Y27       0.0771
     40 H22        17.5384   10.9807    4.4068 H           1 Y27       0.0596
@<TRIPOS>BOND
     1     1     2   2
     2     2     3   1
     3     2    12  am
     4     3     4   1
     5     3     8   1
     6     4     5   1
     7     5     6   1
     8     6     7   1
     9     6     9   1
    10     7     8   1
    11     9    10   1
    12     9    11   1
    13    12    13   1
    14    13    14  ar
    15    13    18  ar
    16    14    15  ar
    17    15    16  ar
    18    16    17  ar
    19    17    18  ar
    20     3    19   1
    21     4    20   1
    22     4    21   1
    23     5    22   1
    24     5    23   1
    25     6    24   1
    26     7    25   1
    27     7    26   1
    28     8    27   1
    29     8    28   1
    30     9    29   1
    31    10    30   1
    32    10    31   1
    33    10    32   1
    34    11    33   1
    35    11    34   1
    36    11    35   1
    37    12    36   1
    38    14    37   1
    39    15    38   1
    40    17    39   1
    41    18    40   1
@<TRIPOS>SUBSTRUCTURE
     1  Y27      2

