@<TRIPOS>MOLECULE
1q8t_ligand_037
    40    41
SMALL
GAST_HUCK
****
This file was generated by PARSER (from files_GN.cpp)

@<TRIPOS>ATOM
      1 O23        13.7970   11.6116    1.7942 O.2         1 Y27      -0.3826
      2 C22        13.3322   10.5750    1.3327 C.2         1 Y27       0.2105
      3 C31        12.2471    9.9151    2.0532 C.3         1 Y27       0.0554
      4 C36        12.4972    9.7861    3.5931 C.3         1 Y27      -0.0322
      5 C35        11.3044    9.1011    4.3191 C.3         1 Y27      -0.0428
      6 C34         9.9633    9.8622    4.0537 C.3         1 Y27       0.0020
      7 C33         9.7134    9.9993    2.5210 C.3         1 Y27      -0.0428
      8 C32        10.9109   10.6808    1.8125 C.3         1 Y27      -0.0322
      9 C41         8.7224    9.2939    4.8221 C.3         1 Y27      -0.0244
     10 C42         8.4445    7.7806    4.6304 C.3         1 Y27      -0.0215
     11 N43         8.8344    9.5860    6.2634 N.4         1 Y27       0.2207
     12 N21        13.7863   10.0816    0.1805 N.am        1 Y27      -0.2247
     13 C14        14.7195   10.6590   -0.6254 C.ar        1 Y27       0.0867
     14 C15        15.8265    9.8868   -1.0303 C.ar        1 Y27      -0.0140
     15 C16        16.8339   10.4826   -1.8144 C.ar        1 Y27      -0.0065
     16 N11        16.7093   11.7750   -2.2082 N.ar        1 Y27      -0.3199
     17 C12        15.6346   12.5361   -1.8808 C.ar        1 Y27      -0.0065
     18 C13        14.6042   11.9901   -1.0906 C.ar        1 Y27      -0.0140
     19 H1         12.1287    8.9025    1.6536 H           1 Y27       0.0544
     20 H2         12.6340   10.7807    4.0340 H           1 Y27       0.0293
     21 H3         13.4114    9.2155    3.7808 H           1 Y27       0.0293
     22 H4         11.5136    9.0823    5.3927 H           1 Y27       0.0271
     23 H5         11.2299    8.0634    3.9759 H           1 Y27       0.0271
     24 H6         10.1022   10.8798    4.4333 H           1 Y27       0.0355
     25 H7          8.8219   10.6040    2.3502 H           1 Y27       0.0271
     26 H8          9.5492    9.0193    2.0715 H           1 Y27       0.0271
     27 H9         10.6997   10.7414    0.7420 H           1 Y27       0.0293
     28 H10        11.0090   11.7043    2.1936 H           1 Y27       0.0293
     29 H11         7.8362    9.8370    4.4829 H           1 Y27       0.0850
     30 H12         7.5192    7.5058    5.1373 H           1 Y27       0.0284
     31 H13         9.2541    7.1824    5.0510 H           1 Y27       0.0284
     32 H14         8.3382    7.5385    3.5737 H           1 Y27       0.0284
     33 H15         8.9996   10.5866    6.4014 H           1 Y27       0.1997
     34 H16         9.6079    9.0539    6.6666 H           1 Y27       0.1997
     35 H17         7.9645    9.3248    6.7362 H           1 Y27       0.1997
     36 H18        13.4790    9.2014   -0.0844 H           1 Y27       0.2307
     37 H19        15.9198    8.9130   -0.7329 H           1 Y27       0.0596
     38 H20        17.6577    9.9481   -2.0853 H           1 Y27       0.0771
     39 H21        15.5737   13.5024   -2.2107 H           1 Y27       0.0771
     40 H22        13.7804   12.5592   -0.8697 H           1 Y27       0.0596
@<TRIPOS>BOND
     1     1     2   2
     2     2     3   1
     3     2    12  am
     4     3     4   1
     5     3     8   1
     6     4     5   1
     7     5     6   1
     8     6     7   1
     9     6     9   1
    10     7     8   1
    11     9    10   1
    12     9    11   1
    13    12    13   1
    14    13    14  ar
    15    13    18  ar
    16    14    15  ar
    17    15    16  ar
    18    16    17  ar
    19    17    18  ar
    20     3    19   1
    21     4    20   1
    22     4    21   1
    23     5    22   1
    24     5    23   1
    25     6    24   1
    26     7    25   1
    27     7    26   1
    28     8    27   1
    29     8    28   1
    30     9    29   1
    31    10    30   1
    32    10    31   1
    33    10    32   1
    34    11    33   1
    35    11    34   1
    36    11    35   1
    37    12    36   1
    38    14    37   1
    39    15    38   1
    40    17    39   1
    41    18    40   1
@<TRIPOS>SUBSTRUCTURE
     1  Y27      2

