@<TRIPOS>MOLECULE
1q8t_ligand_038
    40    41
SMALL
GAST_HUCK
****
This file was generated by PARSER (from files_GN.cpp)

@<TRIPOS>ATOM
      1 O23        11.0719   10.1256   -0.8753 O.2         1 Y27      -0.3826
      2 C22        11.5349   10.1773    0.2569 C.2         1 Y27       0.2105
      3 C31        10.6639   10.1373    1.4353 C.3         1 Y27       0.0554
      4 C36         9.1454    9.9804    1.1070 C.3         1 Y27      -0.0322
      5 C35         8.2570    9.9895    2.3792 C.3         1 Y27      -0.0428
      6 C34         8.6634    8.9022    3.4248 C.3         1 Y27       0.0020
      7 C33        10.1919    9.0306    3.7306 C.3         1 Y27      -0.0428
      8 C32        11.0798    9.0295    2.4556 C.3         1 Y27      -0.0322
      9 C41         7.8086    8.9542    4.7414 C.3         1 Y27      -0.0244
     10 C42         6.2711    8.9536    4.5244 C.3         1 Y27      -0.0215
     11 N43         8.1136    7.8118    5.6240 N.4         1 Y27       0.2207
     12 N21        12.8494   10.3104    0.4435 N.am        1 Y27      -0.2247
     13 C14        13.8348   10.3475   -0.4981 C.ar        1 Y27       0.0867
     14 C15        14.9384    9.4822   -0.3162 C.ar        1 Y27      -0.0140
     15 C16        15.9895    9.4982   -1.2532 C.ar        1 Y27      -0.0065
     16 N11        15.9512   10.3625   -2.2991 N.ar        1 Y27      -0.3199
     17 C12        14.9232   11.2276   -2.4931 C.ar        1 Y27      -0.0065
     18 C13        13.8400   11.2359   -1.5964 C.ar        1 Y27      -0.0140
     19 H1         10.7876   11.1080    1.9262 H           1 Y27       0.0544
     20 H2          8.9805    9.0423    0.5684 H           1 Y27       0.0293
     21 H3          8.8259   10.7991    0.4541 H           1 Y27       0.0293
     22 H4          7.2270    9.8191    2.0545 H           1 Y27       0.0271
     23 H5          8.3011   10.9803    2.8433 H           1 Y27       0.0271
     24 H6          8.4999    7.9255    2.9595 H           1 Y27       0.0355
     25 H7         10.5104    8.1991    4.3634 H           1 Y27       0.0271
     26 H8         10.3756    9.9569    4.2874 H           1 Y27       0.0271
     27 H9         12.1141    9.1837    2.7758 H           1 Y27       0.0293
     28 H10        11.0239    8.0450    1.9829 H           1 Y27       0.0293
     29 H11         8.0587    9.8627    5.2925 H           1 Y27       0.0850
     30 H12         5.7518    8.8647    5.4808 H           1 Y27       0.0284
     31 H13         5.9708    8.1191    3.8892 H           1 Y27       0.0284
     32 H14         5.9449    9.8858    4.0607 H           1 Y27       0.0284
     33 H15         9.0727    7.8674    5.9633 H           1 Y27       0.1997
     34 H16         7.9819    6.9346    5.1179 H           1 Y27       0.1997
     35 H17         7.4837    7.8281    6.4308 H           1 Y27       0.1997
     36 H18        13.1580   10.2926    1.3625 H           1 Y27       0.2307
     37 H19        14.9678    8.8277    0.4696 H           1 Y27       0.0596
     38 H20        16.7838    8.8647   -1.1464 H           1 Y27       0.0771
     39 H21        14.9429   11.8738   -3.2836 H           1 Y27       0.0771
     40 H22        13.0807   11.9052   -1.7348 H           1 Y27       0.0596
@<TRIPOS>BOND
     1     1     2   2
     2     2     3   1
     3     2    12  am
     4     3     4   1
     5     3     8   1
     6     4     5   1
     7     5     6   1
     8     6     7   1
     9     6     9   1
    10     7     8   1
    11     9    10   1
    12     9    11   1
    13    12    13   1
    14    13    14  ar
    15    13    18  ar
    16    14    15  ar
    17    15    16  ar
    18    16    17  ar
    19    17    18  ar
    20     3    19   1
    21     4    20   1
    22     4    21   1
    23     5    22   1
    24     5    23   1
    25     6    24   1
    26     7    25   1
    27     7    26   1
    28     8    27   1
    29     8    28   1
    30     9    29   1
    31    10    30   1
    32    10    31   1
    33    10    32   1
    34    11    33   1
    35    11    34   1
    36    11    35   1
    37    12    36   1
    38    14    37   1
    39    15    38   1
    40    17    39   1
    41    18    40   1
@<TRIPOS>SUBSTRUCTURE
     1  Y27      2

