@<TRIPOS>MOLECULE
1q8t_ligand_044
    40    41
SMALL
GAST_HUCK
****
This file was generated by PARSER (from files_GN.cpp)

@<TRIPOS>ATOM
      1 O23        18.3534   12.2927    8.1485 O.2         1 Y27      -0.3826
      2 C22        18.9489   12.2552    7.0645 C.2         1 Y27       0.2105
      3 C31        18.8679   11.0290    6.2832 C.3         1 Y27       0.0554
      4 C36        19.0684    9.7529    7.1595 C.3         1 Y27      -0.0322
      5 C35        18.9836    8.4477    6.3247 C.3         1 Y27      -0.0428
      6 C34        17.6617    8.3406    5.5009 C.3         1 Y27       0.0020
      7 C33        17.4226    9.6426    4.6669 C.3         1 Y27      -0.0428
      8 C32        17.5146   10.9384    5.5120 C.3         1 Y27      -0.0322
      9 C41        17.6183    7.0374    4.6334 C.3         1 Y27      -0.0244
     10 C42        16.2566    6.2993    4.6994 C.3         1 Y27      -0.0215
     11 N43        17.9610    7.2928    3.2205 N.4         1 Y27       0.2207
     12 N21        19.4904   13.3538    6.5372 N.am        1 Y27      -0.2247
     13 C14        19.5886   14.5801    7.1399 C.ar        1 Y27       0.0867
     14 C15        20.4155   14.8283    8.2661 C.ar        1 Y27      -0.0140
     15 C16        20.4267   16.1078    8.8516 C.ar        1 Y27      -0.0065
     16 N11        19.6699   17.0983    8.3265 N.ar        1 Y27      -0.3199
     17 C12        18.8973   16.9146    7.2185 C.ar        1 Y27      -0.0065
     18 C13        18.8562   15.6593    6.5919 C.ar        1 Y27      -0.0140
     19 H1         19.6742   11.0291    5.5300 H           1 Y27       0.0544
     20 H2         18.3017    9.7124    7.9440 H           1 Y27       0.0293
     21 H3         20.0470    9.8009    7.6514 H           1 Y27       0.0293
     22 H4         19.0535    7.6022    7.0156 H           1 Y27       0.0271
     23 H5         19.8469    8.4041    5.6559 H           1 Y27       0.0271
     24 H6         16.8539    8.2784    6.2359 H           1 Y27       0.0355
     25 H7         16.4381    9.6109    4.1956 H           1 Y27       0.0271
     26 H8         18.1685    9.7171    3.8682 H           1 Y27       0.0271
     27 H9         17.4307   11.7957    4.8381 H           1 Y27       0.0293
     28 H10        16.6689   10.9838    6.2110 H           1 Y27       0.0293
     29 H11        18.3616    6.3321    5.0096 H           1 Y27       0.0850
     30 H12        16.2339    5.4502    4.0118 H           1 Y27       0.0284
     31 H13        15.4375    6.9644    4.4270 H           1 Y27       0.0284
     32 H14        16.0771    5.9256    5.7114 H           1 Y27       0.0284
     33 H15        18.7632    7.9170    3.1719 H           1 Y27       0.1997
     34 H16        17.1701    7.7302    2.7418 H           1 Y27       0.1997
     35 H17        18.1937    6.4147    2.7506 H           1 Y27       0.1997
     36 H18        19.7407   13.2969    5.5910 H           1 Y27       0.2307
     37 H19        20.9981   14.0843    8.6600 H           1 Y27       0.0596
     38 H20        20.9900   16.2867    9.6865 H           1 Y27       0.0771
     39 H21        18.3404   17.6902    6.8636 H           1 Y27       0.0771
     40 H22        18.2549   15.5136    5.7722 H           1 Y27       0.0596
@<TRIPOS>BOND
     1     1     2   2
     2     2     3   1
     3     2    12  am
     4     3     4   1
     5     3     8   1
     6     4     5   1
     7     5     6   1
     8     6     7   1
     9     6     9   1
    10     7     8   1
    11     9    10   1
    12     9    11   1
    13    12    13   1
    14    13    14  ar
    15    13    18  ar
    16    14    15  ar
    17    15    16  ar
    18    16    17  ar
    19    17    18  ar
    20     3    19   1
    21     4    20   1
    22     4    21   1
    23     5    22   1
    24     5    23   1
    25     6    24   1
    26     7    25   1
    27     7    26   1
    28     8    27   1
    29     8    28   1
    30     9    29   1
    31    10    30   1
    32    10    31   1
    33    10    32   1
    34    11    33   1
    35    11    34   1
    36    11    35   1
    37    12    36   1
    38    14    37   1
    39    15    38   1
    40    17    39   1
    41    18    40   1
@<TRIPOS>SUBSTRUCTURE
     1  Y27      2

