@<TRIPOS>MOLECULE
1q8t_ligand_052
    40    41
SMALL
GAST_HUCK
****
This file was generated by PARSER (from files_GN.cpp)

@<TRIPOS>ATOM
      1 O23         7.2980    8.8494   -1.4846 O.2         1 Y27      -0.3826
      2 C22         7.7171    9.9275   -1.0847 C.2         1 Y27       0.2105
      3 C31         8.1533   10.0481    0.3030 C.3         1 Y27       0.0554
      4 C36         7.0244    9.6896    1.3170 C.3         1 Y27      -0.0322
      5 C35         7.5176    9.8192    2.7836 C.3         1 Y27      -0.0428
      6 C34         8.7939    8.9624    3.0604 C.3         1 Y27       0.0020
      7 C33         9.9116    9.3071    2.0261 C.3         1 Y27      -0.0428
      8 C32         9.4135    9.1686    0.5619 C.3         1 Y27      -0.0322
      9 C41         9.3061    9.0259    4.5431 C.3         1 Y27      -0.0244
     10 C42         9.4130   10.4391    5.1766 C.3         1 Y27      -0.0215
     11 N43         8.4731    8.1797    5.4158 N.4         1 Y27       0.2207
     12 N21         7.7536   10.9833   -1.8896 N.am        1 Y27      -0.2247
     13 C14         7.4585   11.0044   -3.2207 C.ar        1 Y27       0.0867
     14 C15         6.6534   12.0573   -3.6964 C.ar        1 Y27      -0.0140
     15 C16         6.2702   12.0774   -5.0474 C.ar        1 Y27      -0.0065
     16 N11         6.7520   11.1396   -5.8993 N.ar        1 Y27      -0.3199
     17 C12         7.5802   10.1449   -5.4952 C.ar        1 Y27      -0.0065
     18 C13         7.9442   10.0453   -4.1410 C.ar        1 Y27      -0.0140
     19 H1          8.4398   11.0897    0.4937 H           1 Y27       0.0544
     20 H2          6.6837    8.6634    1.1505 H           1 Y27       0.0293
     21 H3          6.1693   10.3565    1.1689 H           1 Y27       0.0293
     22 H4          6.7124    9.5104    3.4547 H           1 Y27       0.0271
     23 H5          7.7293   10.8746    2.9738 H           1 Y27       0.0271
     24 H6          8.5220    7.9176    2.8698 H           1 Y27       0.0355
     25 H7         10.7614    8.6329    2.1614 H           1 Y27       0.0271
     26 H8         10.2667   10.3284    2.1839 H           1 Y27       0.0271
     27 H9         10.2197    9.4660   -0.1168 H           1 Y27       0.0293
     28 H10         9.1801    8.1166    0.3618 H           1 Y27       0.0293
     29 H11        10.3056    8.5839    4.5776 H           1 Y27       0.0850
     30 H12         9.8671   10.3702    6.1676 H           1 Y27       0.0284
     31 H13         8.4268   10.8907    5.2942 H           1 Y27       0.0284
     32 H14        10.0296   11.0948    4.5593 H           1 Y27       0.0284
     33 H15         8.4062    7.2389    5.0229 H           1 Y27       0.1997
     34 H16         7.5353    8.5763    5.5077 H           1 Y27       0.1997
     35 H17         8.9155    8.1120    6.3338 H           1 Y27       0.1997
     36 H18         7.9551   11.8386   -1.4754 H           1 Y27       0.2307
     37 H19         6.3024   12.7771   -3.0641 H           1 Y27       0.0596
     38 H20         5.6251   12.7896   -5.3875 H           1 Y27       0.0771
     39 H21         7.9204    9.4675   -6.1792 H           1 Y27       0.0771
     40 H22         8.5678    9.2940   -3.8391 H           1 Y27       0.0596
@<TRIPOS>BOND
     1     1     2   2
     2     2     3   1
     3     2    12  am
     4     3     4   1
     5     3     8   1
     6     4     5   1
     7     5     6   1
     8     6     7   1
     9     6     9   1
    10     7     8   1
    11     9    10   1
    12     9    11   1
    13    12    13   1
    14    13    14  ar
    15    13    18  ar
    16    14    15  ar
    17    15    16  ar
    18    16    17  ar
    19    17    18  ar
    20     3    19   1
    21     4    20   1
    22     4    21   1
    23     5    22   1
    24     5    23   1
    25     6    24   1
    26     7    25   1
    27     7    26   1
    28     8    27   1
    29     8    28   1
    30     9    29   1
    31    10    30   1
    32    10    31   1
    33    10    32   1
    34    11    33   1
    35    11    34   1
    36    11    35   1
    37    12    36   1
    38    14    37   1
    39    15    38   1
    40    17    39   1
    41    18    40   1
@<TRIPOS>SUBSTRUCTURE
     1  Y27      2

