@<TRIPOS>MOLECULE
1q8t_ligand_036
    40    41
SMALL
GAST_HUCK
****
This file was generated by PARSER (from files_GN.cpp)

@<TRIPOS>ATOM
      1 O23        11.0454   10.8963    3.8779 O.2         1 Y27      -0.3826
      2 C22        10.7426   10.0972    4.7539 C.2         1 Y27       0.2105
      3 C31         9.3740   10.0639    5.2841 C.3         1 Y27       0.0554
      4 C36         8.5293   11.3361    4.9708 C.3         1 Y27      -0.0322
      5 C35         7.0999   11.2345    5.5624 C.3         1 Y27      -0.0428
      6 C34         6.3092   10.0024    5.0231 C.3         1 Y27       0.0020
      7 C33         7.1521    8.7178    5.2940 C.3         1 Y27      -0.0428
      8 C32         8.6163    8.7974    4.7779 C.3         1 Y27      -0.0322
      9 C41         4.8515    9.9556    5.6212 C.3         1 Y27      -0.0244
     10 C42         3.8343   10.8128    4.8259 C.3         1 Y27      -0.0215
     11 N43         4.2962    8.5943    5.6972 N.4         1 Y27       0.2207
     12 N21        11.6555    9.2812    5.2812 N.am        1 Y27      -0.2247
     13 C14        12.9634    9.1066    4.9250 C.ar        1 Y27       0.0867
     14 C15        13.8989    8.8767    5.9576 C.ar        1 Y27      -0.0140
     15 C16        15.2462    8.6351    5.6405 C.ar        1 Y27      -0.0065
     16 N11        15.6387    8.5979    4.3412 N.ar        1 Y27      -0.3199
     17 C12        14.7720    8.7971    3.3154 C.ar        1 Y27      -0.0065
     18 C13        13.4150    9.0575    3.5819 C.ar        1 Y27      -0.0140
     19 H1          9.4537    9.9989    6.3770 H           1 Y27       0.0544
     20 H2          8.4508   11.4673    3.8888 H           1 Y27       0.0293
     21 H3          9.0271   12.2166    5.3865 H           1 Y27       0.0293
     22 H4          6.5649   12.1552    5.3264 H           1 Y27       0.0271
     23 H5          7.1745   11.1609    6.6481 H           1 Y27       0.0271
     24 H6          6.2250   10.1050    3.9340 H           1 Y27       0.0355
     25 H7          6.6814    7.8717    4.7902 H           1 Y27       0.0271
     26 H8          7.1645    8.5075    6.3659 H           1 Y27       0.0271
     27 H9          9.1463    7.8933    5.1018 H           1 Y27       0.0293
     28 H10         8.5995    8.7976    3.6848 H           1 Y27       0.0293
     29 H11         4.8729   10.3283    6.6499 H           1 Y27       0.0850
     30 H12         2.8582   10.7929    5.3174 H           1 Y27       0.0284
     31 H13         3.7164   10.4271    3.8122 H           1 Y27       0.0284
     32 H14         4.1560   11.8526    4.7665 H           1 Y27       0.0284
     33 H15         4.9078    8.0232    6.2768 H           1 Y27       0.1997
     34 H16         4.2326    8.1915    4.7605 H           1 Y27       0.1997
     35 H17         3.3684    8.6030    6.1310 H           1 Y27       0.1997
     36 H18        11.3632    8.7666    6.0520 H           1 Y27       0.2307
     37 H19        13.6087    8.8969    6.9401 H           1 Y27       0.0596
     38 H20        15.9368    8.4793    6.3801 H           1 Y27       0.0771
     39 H21        15.1078    8.7490    2.3515 H           1 Y27       0.0771
     40 H22        12.7662    9.1758    2.8028 H           1 Y27       0.0596
@<TRIPOS>BOND
     1     1     2   2
     2     2     3   1
     3     2    12  am
     4     3     4   1
     5     3     8   1
     6     4     5   1
     7     5     6   1
     8     6     7   1
     9     6     9   1
    10     7     8   1
    11     9    10   1
    12     9    11   1
    13    12    13   1
    14    13    14  ar
    15    13    18  ar
    16    14    15  ar
    17    15    16  ar
    18    16    17  ar
    19    17    18  ar
    20     3    19   1
    21     4    20   1
    22     4    21   1
    23     5    22   1
    24     5    23   1
    25     6    24   1
    26     7    25   1
    27     7    26   1
    28     8    27   1
    29     8    28   1
    30     9    29   1
    31    10    30   1
    32    10    31   1
    33    10    32   1
    34    11    33   1
    35    11    34   1
    36    11    35   1
    37    12    36   1
    38    14    37   1
    39    15    38   1
    40    17    39   1
    41    18    40   1
@<TRIPOS>SUBSTRUCTURE
     1  Y27      2

