@<TRIPOS>MOLECULE
1q8t_ligand_067
    40    41
SMALL
GAST_HUCK
****
This file was generated by PARSER (from files_GN.cpp)

@<TRIPOS>ATOM
      1 O23        10.0317   10.1960   -1.1349 O.2         1 Y27      -0.3826
      2 C22         9.0485    9.5017   -0.8699 C.2         1 Y27       0.2105
      3 C31         9.0555    8.5662    0.2548 C.3         1 Y27       0.0554
      4 C36        10.4058    8.4256    1.0305 C.3         1 Y27      -0.0322
      5 C35        10.7083    9.6415    1.9467 C.3         1 Y27      -0.0428
      6 C34         9.5575   10.0201    2.9411 C.3         1 Y27       0.0020
      7 C33         8.1863   10.0735    2.1865 C.3         1 Y27      -0.0428
      8 C32         7.9048    8.8428    1.2785 C.3         1 Y27      -0.0322
      9 C41         9.5176    9.2955    4.3346 C.3         1 Y27      -0.0244
     10 C42         8.9357    7.8586    4.4182 C.3         1 Y27      -0.0215
     11 N43        10.8386    9.2935    4.9868 N.4         1 Y27       0.2207
     12 N21         7.9958    9.5053   -1.6837 N.am        1 Y27      -0.2247
     13 C14         7.8203   10.2586   -2.7955 C.ar        1 Y27       0.0867
     14 C15         7.7141    9.6170   -4.0424 C.ar        1 Y27      -0.0140
     15 C16         7.4821   10.3852   -5.1993 C.ar        1 Y27      -0.0065
     16 N11         7.3021   11.7265   -5.0898 N.ar        1 Y27      -0.3199
     17 C12         7.3672   12.3755   -3.8994 C.ar        1 Y27      -0.0065
     18 C13         7.6469   11.6576   -2.7205 C.ar        1 Y27      -0.0140
     19 H1          8.8639    7.5815   -0.1898 H           1 Y27       0.0544
     20 H2         11.2261    8.2952    0.3222 H           1 Y27       0.0293
     21 H3         10.3810    7.5222    1.6437 H           1 Y27       0.0293
     22 H4         10.9000   10.5037    1.3014 H           1 Y27       0.0271
     23 H5         11.6398    9.4521    2.4813 H           1 Y27       0.0271
     24 H6          9.7719   11.0640    3.2072 H           1 Y27       0.0355
     25 H7          8.1652   10.9619    1.5511 H           1 Y27       0.0271
     26 H8          7.3697   10.1804    2.9086 H           1 Y27       0.0271
     27 H9          7.7691    7.9540    1.8935 H           1 Y27       0.0293
     28 H10         6.9545    9.0017    0.7613 H           1 Y27       0.0293
     29 H11         8.8817    9.9018    4.9872 H           1 Y27       0.0850
     30 H12         9.0648    7.4581    5.4251 H           1 Y27       0.0284
     31 H13         9.4336    7.1866    3.7148 H           1 Y27       0.0284
     32 H14         7.8638    7.8739    4.2089 H           1 Y27       0.0284
     33 H15        11.2118   10.2494    5.0278 H           1 Y27       0.1997
     34 H16        11.4848    8.6989    4.4666 H           1 Y27       0.1997
     35 H17        10.7500    8.9274    5.9372 H           1 Y27       0.1997
     36 H18         7.2904    8.8580   -1.4910 H           1 Y27       0.2307
     37 H19         7.8239    8.6039   -4.1229 H           1 Y27       0.0596
     38 H20         7.4443    9.9397   -6.1181 H           1 Y27       0.0771
     39 H21         7.2210   13.3867   -3.8677 H           1 Y27       0.0771
     40 H22         7.7022   12.1440   -1.8220 H           1 Y27       0.0596
@<TRIPOS>BOND
     1     1     2   2
     2     2     3   1
     3     2    12  am
     4     3     4   1
     5     3     8   1
     6     4     5   1
     7     5     6   1
     8     6     7   1
     9     6     9   1
    10     7     8   1
    11     9    10   1
    12     9    11   1
    13    12    13   1
    14    13    14  ar
    15    13    18  ar
    16    14    15  ar
    17    15    16  ar
    18    16    17  ar
    19    17    18  ar
    20     3    19   1
    21     4    20   1
    22     4    21   1
    23     5    22   1
    24     5    23   1
    25     6    24   1
    26     7    25   1
    27     7    26   1
    28     8    27   1
    29     8    28   1
    30     9    29   1
    31    10    30   1
    32    10    31   1
    33    10    32   1
    34    11    33   1
    35    11    34   1
    36    11    35   1
    37    12    36   1
    38    14    37   1
    39    15    38   1
    40    17    39   1
    41    18    40   1
@<TRIPOS>SUBSTRUCTURE
     1  Y27      2

