@<TRIPOS>MOLECULE
1q8t_ligand_040
    40    41
SMALL
GAST_HUCK
****
This file was generated by PARSER (from files_GN.cpp)

@<TRIPOS>ATOM
      1 O23        10.4737    9.6363   -1.3856 O.2         1 Y27      -0.3826
      2 C22        10.1823   10.2113   -0.3416 C.2         1 Y27       0.2105
      3 C31         9.0295    9.7224    0.4206 C.3         1 Y27       0.0554
      4 C36         9.3857    9.3837    1.9062 C.3         1 Y27      -0.0322
      5 C35         8.1499    8.8633    2.6930 C.3         1 Y27      -0.0428
      6 C34         6.9569    9.8725    2.6495 C.3         1 Y27       0.0020
      7 C33         6.6041   10.2095    1.1647 C.3         1 Y27      -0.0428
      8 C32         7.8296   10.7232    0.3590 C.3         1 Y27      -0.0322
      9 C41         5.6993    9.4401    3.4822 C.3         1 Y27      -0.0244
     10 C42         4.8921    8.2319    2.9253 C.3         1 Y27      -0.0215
     11 N43         6.0555    9.1703    4.8900 N.4         1 Y27       0.2207
     12 N21        10.8218   11.3138    0.0423 N.am        1 Y27      -0.2247
     13 C14        11.9323   11.9268   -0.4677 C.ar        1 Y27       0.0867
     14 C15        12.1083   13.2946   -0.1528 C.ar        1 Y27      -0.0140
     15 C16        13.2468   13.9792   -0.6185 C.ar        1 Y27      -0.0065
     16 N11        14.1762   13.3224   -1.3540 N.ar        1 Y27      -0.3199
     17 C12        14.0500   12.0110   -1.6806 C.ar        1 Y27      -0.0065
     18 C13        12.9314   11.2823   -1.2405 C.ar        1 Y27      -0.0140
     19 H1          8.6886    8.7830   -0.0349 H           1 Y27       0.0544
     20 H2          9.7730   10.2808    2.4099 H           1 Y27       0.0293
     21 H3         10.1747    8.6186    1.9322 H           1 Y27       0.0293
     22 H4          8.4625    8.7004    3.7271 H           1 Y27       0.0271
     23 H5          7.8471    7.8989    2.2755 H           1 Y27       0.0271
     24 H6          7.3221   10.8035    3.1045 H           1 Y27       0.0355
     25 H7          5.8224   10.9743    1.1431 H           1 Y27       0.0271
     26 H8          6.2234    9.3192    0.6555 H           1 Y27       0.0271
     27 H9          7.5333   10.8621   -0.6879 H           1 Y27       0.0293
     28 H10         8.1284   11.6995    0.7575 H           1 Y27       0.0293
     29 H11         5.0181   10.2995    3.5102 H           1 Y27       0.0850
     30 H12         4.1203    7.9326    3.6491 H           1 Y27       0.0284
     31 H13         5.5569    7.3797    2.7517 H           1 Y27       0.0284
     32 H14         4.4015    8.5073    1.9821 H           1 Y27       0.0284
     33 H15         6.5795    9.9610    5.2801 H           1 Y27       0.1997
     34 H16         6.6233    8.3193    4.9462 H           1 Y27       0.1997
     35 H17         5.1999    9.0380    5.4354 H           1 Y27       0.1997
     36 H18        10.4370   11.7639    0.8065 H           1 Y27       0.2307
     37 H19        11.4166   13.7937    0.4121 H           1 Y27       0.0596
     38 H20        13.3808   14.9671   -0.3996 H           1 Y27       0.0771
     39 H21        14.7811   11.5545   -2.2305 H           1 Y27       0.0771
     40 H22        12.8673   10.2867   -1.4620 H           1 Y27       0.0596
@<TRIPOS>BOND
     1     1     2   2
     2     2     3   1
     3     2    12  am
     4     3     4   1
     5     3     8   1
     6     4     5   1
     7     5     6   1
     8     6     7   1
     9     6     9   1
    10     7     8   1
    11     9    10   1
    12     9    11   1
    13    12    13   1
    14    13    14  ar
    15    13    18  ar
    16    14    15  ar
    17    15    16  ar
    18    16    17  ar
    19    17    18  ar
    20     3    19   1
    21     4    20   1
    22     4    21   1
    23     5    22   1
    24     5    23   1
    25     6    24   1
    26     7    25   1
    27     7    26   1
    28     8    27   1
    29     8    28   1
    30     9    29   1
    31    10    30   1
    32    10    31   1
    33    10    32   1
    34    11    33   1
    35    11    34   1
    36    11    35   1
    37    12    36   1
    38    14    37   1
    39    15    38   1
    40    17    39   1
    41    18    40   1
@<TRIPOS>SUBSTRUCTURE
     1  Y27      2

