@<TRIPOS>MOLECULE
1q8t_ligand_020
    40    41
SMALL
GAST_HUCK
****
This file was generated by PARSER (from files_GN.cpp)

@<TRIPOS>ATOM
      1 O23         7.4601    7.8540    3.1185 O.2         1 Y27      -0.3826
      2 C22         7.7931    8.9025    2.5764 C.2         1 Y27       0.2105
      3 C31         9.1675    9.0380    2.0949 C.3         1 Y27       0.0554
      4 C36         9.2133    9.2956    0.5583 C.3         1 Y27      -0.0322
      5 C35        10.6672    9.4717    0.0426 C.3         1 Y27      -0.0428
      6 C34        11.4114   10.6205    0.7918 C.3         1 Y27       0.0020
      7 C33        11.3902   10.3378    2.3296 C.3         1 Y27      -0.0428
      8 C32         9.9511   10.1382    2.8766 C.3         1 Y27      -0.0322
      9 C41        12.8410   10.8832    0.2005 C.3         1 Y27      -0.0244
     10 C42        13.4631   12.2207    0.6786 C.3         1 Y27      -0.0215
     11 N43        13.7913    9.7908    0.4743 N.4         1 Y27       0.2207
     12 N21         6.9391    9.9179    2.4813 N.am        1 Y27      -0.2247
     13 C14         5.6629    9.9141    2.9485 C.ar        1 Y27       0.0867
     14 C15         4.6449    9.1906    2.2886 C.ar        1 Y27      -0.0140
     15 C16         3.3395    9.2099    2.8149 C.ar        1 Y27      -0.0065
     16 N11         3.0798    9.9073    3.9508 N.ar        1 Y27      -0.3199
     17 C12         4.0322   10.6190    4.6054 C.ar        1 Y27      -0.0065
     18 C13         5.3480   10.6522    4.1082 C.ar        1 Y27      -0.0140
     19 H1          9.6931    8.0911    2.2706 H           1 Y27       0.0544
     20 H2          8.6421   10.1977    0.3138 H           1 Y27       0.0293
     21 H3          8.7523    8.4545    0.0314 H           1 Y27       0.0293
     22 H4         10.6278    9.6898   -1.0279 H           1 Y27       0.0271
     23 H5         11.2099    8.5318    0.1710 H           1 Y27       0.0271
     24 H6         10.8303   11.5325    0.6159 H           1 Y27       0.0355
     25 H7         11.8448   11.1686    2.8718 H           1 Y27       0.0271
     26 H8         11.9716    9.4383    2.5480 H           1 Y27       0.0271
     27 H9         10.0131    9.8577    3.9328 H           1 Y27       0.0293
     28 H10         9.4240   11.0937    2.8204 H           1 Y27       0.0293
     29 H11        12.7522   10.9563   -0.8886 H           1 Y27       0.0850
     30 H12        14.4112   12.3992    0.1667 H           1 Y27       0.0284
     31 H13        13.6538   12.2016    1.7521 H           1 Y27       0.0284
     32 H14        12.7934   13.0544    0.4546 H           1 Y27       0.0284
     33 H15        13.4855    8.9394    0.0008 H           1 Y27       0.1997
     34 H16        13.8528    9.6243    1.4799 H           1 Y27       0.1997
     35 H17        14.7147   10.0511    0.1229 H           1 Y27       0.1997
     36 H18         7.2807   10.7608    2.1430 H           1 Y27       0.2307
     37 H19         4.8447    8.6619    1.4347 H           1 Y27       0.0596
     38 H20         2.5874    8.6944    2.3533 H           1 Y27       0.0771
     39 H21         3.7884   11.1183    5.4617 H           1 Y27       0.0771
     40 H22         6.0702   11.1803    4.6034 H           1 Y27       0.0596
@<TRIPOS>BOND
     1     1     2   2
     2     2     3   1
     3     2    12  am
     4     3     4   1
     5     3     8   1
     6     4     5   1
     7     5     6   1
     8     6     7   1
     9     6     9   1
    10     7     8   1
    11     9    10   1
    12     9    11   1
    13    12    13   1
    14    13    14  ar
    15    13    18  ar
    16    14    15  ar
    17    15    16  ar
    18    16    17  ar
    19    17    18  ar
    20     3    19   1
    21     4    20   1
    22     4    21   1
    23     5    22   1
    24     5    23   1
    25     6    24   1
    26     7    25   1
    27     7    26   1
    28     8    27   1
    29     8    28   1
    30     9    29   1
    31    10    30   1
    32    10    31   1
    33    10    32   1
    34    11    33   1
    35    11    34   1
    36    11    35   1
    37    12    36   1
    38    14    37   1
    39    15    38   1
    40    17    39   1
    41    18    40   1
@<TRIPOS>SUBSTRUCTURE
     1  Y27      2

