@<TRIPOS>MOLECULE
1q8t_ligand_078
    40    41
SMALL
GAST_HUCK
****
This file was generated by PARSER (from files_GN.cpp)

@<TRIPOS>ATOM
      1 O23        17.9372    9.1431    0.7397 O.2         1 Y27      -0.3826
      2 C22        17.1865    8.2356    0.4026 C.2         1 Y27       0.2105
      3 C31        17.0999    7.8127   -0.9990 C.3         1 Y27       0.0554
      4 C36        15.6475    7.9622   -1.5580 C.3         1 Y27      -0.0322
      5 C35        15.2950    9.4173   -1.9809 C.3         1 Y27      -0.0428
      6 C34        16.3175   10.0326   -2.9923 C.3         1 Y27       0.0020
      7 C33        17.7454    9.9297   -2.3692 C.3         1 Y27      -0.0428
      8 C32        18.1217    8.4763   -1.9829 C.3         1 Y27      -0.0322
      9 C41        16.1604    9.4531   -4.4524 C.3         1 Y27      -0.0244
     10 C42        15.0473   10.1652   -5.2681 C.3         1 Y27      -0.0215
     11 N43        17.3979    9.4982   -5.2506 N.4         1 Y27       0.2207
     12 N21        16.5251    7.5266    1.3139 N.am        1 Y27      -0.2247
     13 C14        16.4830    7.6771    2.6680 C.ar        1 Y27       0.0867
     14 C15        16.3551    6.5020    3.4409 C.ar        1 Y27      -0.0140
     15 C16        16.2807    6.5921    4.8421 C.ar        1 Y27      -0.0065
     16 N11        16.3027    7.8098    5.4410 N.ar        1 Y27      -0.3199
     17 C12        16.3979    8.9659    4.7361 C.ar        1 Y27      -0.0065
     18 C13        16.4913    8.9284    3.3337 C.ar        1 Y27      -0.0140
     19 H1         17.3403    6.7438   -1.0019 H           1 Y27       0.0544
     20 H2         14.9147    7.6216   -0.8226 H           1 Y27       0.0293
     21 H3         15.5360    7.2994   -2.4190 H           1 Y27       0.0293
     22 H4         15.2677   10.0391   -1.0799 H           1 Y27       0.0271
     23 H5         14.2918    9.4343   -2.4118 H           1 Y27       0.0271
     24 H6         16.1048   11.1070   -3.0515 H           1 Y27       0.0355
     25 H7         17.7889   10.5583   -1.4762 H           1 Y27       0.0271
     26 H8         18.4929   10.3326   -3.0547 H           1 Y27       0.0271
     27 H9         18.1651    7.8813   -2.8997 H           1 Y27       0.0293
     28 H10        19.1238    8.4644   -1.5460 H           1 Y27       0.0293
     29 H11        15.8945    8.3952   -4.4042 H           1 Y27       0.0850
     30 H12        15.0101    9.7752   -6.2865 H           1 Y27       0.0284
     31 H13        15.2382   11.2387   -5.3211 H           1 Y27       0.0284
     32 H14        14.0695   10.0071   -4.8052 H           1 Y27       0.0284
     33 H15        18.1122    8.9164   -4.8119 H           1 Y27       0.1997
     34 H16        17.7427   10.4550   -5.3126 H           1 Y27       0.1997
     35 H17        17.2077    9.1406   -6.1899 H           1 Y27       0.1997
     36 H18        16.0388    6.7576    0.9732 H           1 Y27       0.2307
     37 H19        16.3318    5.5816    2.9932 H           1 Y27       0.0596
     38 H20        16.2056    5.7480    5.4119 H           1 Y27       0.0771
     39 H21        16.3945    9.8600    5.2296 H           1 Y27       0.0771
     40 H22        16.5327    9.8045    2.8115 H           1 Y27       0.0596
@<TRIPOS>BOND
     1     1     2   2
     2     2     3   1
     3     2    12  am
     4     3     4   1
     5     3     8   1
     6     4     5   1
     7     5     6   1
     8     6     7   1
     9     6     9   1
    10     7     8   1
    11     9    10   1
    12     9    11   1
    13    12    13   1
    14    13    14  ar
    15    13    18  ar
    16    14    15  ar
    17    15    16  ar
    18    16    17  ar
    19    17    18  ar
    20     3    19   1
    21     4    20   1
    22     4    21   1
    23     5    22   1
    24     5    23   1
    25     6    24   1
    26     7    25   1
    27     7    26   1
    28     8    27   1
    29     8    28   1
    30     9    29   1
    31    10    30   1
    32    10    31   1
    33    10    32   1
    34    11    33   1
    35    11    34   1
    36    11    35   1
    37    12    36   1
    38    14    37   1
    39    15    38   1
    40    17    39   1
    41    18    40   1
@<TRIPOS>SUBSTRUCTURE
     1  Y27      2

