@<TRIPOS>MOLECULE
1q8t_ligand_051
    40    41
SMALL
GAST_HUCK
****
This file was generated by PARSER (from files_GN.cpp)

@<TRIPOS>ATOM
      1 O23        11.4746   10.1359   -0.8681 O.2         1 Y27      -0.3826
      2 C22        12.4664    9.9425   -0.1584 C.2         1 Y27       0.2105
      3 C31        12.3591    9.2404    1.1245 C.3         1 Y27       0.0554
      4 C36        12.9815   10.0618    2.3010 C.3         1 Y27      -0.0322
      5 C35        12.0759   11.2566    2.7014 C.3         1 Y27      -0.0428
      6 C34        10.6454   10.8107    3.1401 C.3         1 Y27       0.0020
      7 C33        10.0035    9.8963    2.0449 C.3         1 Y27      -0.0428
      8 C32        10.9263    8.7570    1.5232 C.3         1 Y27      -0.0322
      9 C41        10.5708   10.2710    4.6201 C.3         1 Y27      -0.0244
     10 C42         9.3159   10.7735    5.3816 C.3         1 Y27      -0.0215
     11 N43        10.6113    8.8059    4.7474 N.4         1 Y27       0.2207
     12 N21        13.6787   10.2498   -0.6051 N.am        1 Y27      -0.2247
     13 C14        13.9725   10.8247   -1.7962 C.ar        1 Y27       0.0867
     14 C15        14.3886   10.0182   -2.8777 C.ar        1 Y27      -0.0140
     15 C16        14.7298   10.6274   -4.0967 C.ar        1 Y27      -0.0065
     16 N11        14.6778   11.9806   -4.2137 N.ar        1 Y27      -0.3199
     17 C12        14.2966   12.7870   -3.1890 C.ar        1 Y27      -0.0065
     18 C13        13.9278   12.2269   -1.9539 C.ar        1 Y27      -0.0140
     19 H1         12.9640    8.3346    1.0103 H           1 Y27       0.0544
     20 H2         13.9715   10.4379    2.0287 H           1 Y27       0.0293
     21 H3         13.1262    9.4105    3.1666 H           1 Y27       0.0293
     22 H4         11.9863   11.9322    1.8439 H           1 Y27       0.0271
     23 H5         12.5643   11.8289    3.4958 H           1 Y27       0.0271
     24 H6         10.0636   11.7369    3.1331 H           1 Y27       0.0355
     25 H7          9.7333   10.5234    1.1894 H           1 Y27       0.0271
     26 H8          9.0750    9.4561    2.4189 H           1 Y27       0.0271
     27 H9         11.0159    7.9860    2.2892 H           1 Y27       0.0293
     28 H10        10.4528    8.2755    0.6644 H           1 Y27       0.0293
     29 H11        11.4355   10.6449    5.1761 H           1 Y27       0.0850
     30 H12         9.3140   10.3909    6.4031 H           1 Y27       0.0284
     31 H13         8.4015   10.4419    4.8825 H           1 Y27       0.0284
     32 H14         9.3105   11.8654    5.4278 H           1 Y27       0.0284
     33 H15        11.4620    8.4337    4.3244 H           1 Y27       0.1997
     34 H16         9.7935    8.3975    4.2918 H           1 Y27       0.1997
     35 H17        10.5986    8.5540    5.7381 H           1 Y27       0.1997
     36 H18        14.4333    9.9800   -0.0524 H           1 Y27       0.2307
     37 H19        14.4312    8.9993   -2.7848 H           1 Y27       0.0596
     38 H20        15.0244   10.0640   -4.8972 H           1 Y27       0.0771
     39 H21        14.2897   13.7992   -3.3226 H           1 Y27       0.0771
     40 H22        13.6500   12.8342   -1.1788 H           1 Y27       0.0596
@<TRIPOS>BOND
     1     1     2   2
     2     2     3   1
     3     2    12  am
     4     3     4   1
     5     3     8   1
     6     4     5   1
     7     5     6   1
     8     6     7   1
     9     6     9   1
    10     7     8   1
    11     9    10   1
    12     9    11   1
    13    12    13   1
    14    13    14  ar
    15    13    18  ar
    16    14    15  ar
    17    15    16  ar
    18    16    17  ar
    19    17    18  ar
    20     3    19   1
    21     4    20   1
    22     4    21   1
    23     5    22   1
    24     5    23   1
    25     6    24   1
    26     7    25   1
    27     7    26   1
    28     8    27   1
    29     8    28   1
    30     9    29   1
    31    10    30   1
    32    10    31   1
    33    10    32   1
    34    11    33   1
    35    11    34   1
    36    11    35   1
    37    12    36   1
    38    14    37   1
    39    15    38   1
    40    17    39   1
    41    18    40   1
@<TRIPOS>SUBSTRUCTURE
     1  Y27      2

