@<TRIPOS>MOLECULE
1q8t_ligand_064
    40    41
SMALL
GAST_HUCK
****
This file was generated by PARSER (from files_GN.cpp)

@<TRIPOS>ATOM
      1 O23        16.8326    8.9607    9.4887 O.2         1 Y27      -0.3826
      2 C22        17.3334    9.4416    8.4776 C.2         1 Y27       0.2105
      3 C31        17.0484    8.8187    7.1854 C.3         1 Y27       0.0554
      4 C36        16.1119    9.6998    6.3031 C.3         1 Y27      -0.0322
      5 C35        15.8109    9.0296    4.9379 C.3         1 Y27      -0.0428
      6 C34        17.1021    8.6709    4.1356 C.3         1 Y27       0.0020
      7 C33        18.0310    7.7871    5.0345 C.3         1 Y27      -0.0428
      8 C32        18.3444    8.4529    6.4008 C.3         1 Y27      -0.0322
      9 C41        16.7852    8.0018    2.7498 C.3         1 Y27      -0.0244
     10 C42        16.1868    8.9710    1.6940 C.3         1 Y27      -0.0215
     11 N43        17.9947    7.4252    2.1367 N.4         1 Y27       0.2207
     12 N21        18.0223   10.5773    8.5211 N.am        1 Y27      -0.2247
     13 C14        18.3493   11.3198    9.6191 C.ar        1 Y27       0.0867
     14 C15        17.7641   12.5958    9.7421 C.ar        1 Y27      -0.0140
     15 C16        18.0640   13.3881   10.8655 C.ar        1 Y27      -0.0065
     16 N11        18.9430   12.9351   11.7942 N.ar        1 Y27      -0.3199
     17 C12        19.5593   11.7313   11.6917 C.ar        1 Y27      -0.0065
     18 C13        19.2767   10.8918   10.5966 C.ar        1 Y27      -0.0140
     19 H1         16.5166    7.8796    7.3729 H           1 Y27       0.0544
     20 H2         16.5704   10.6776    6.1216 H           1 Y27       0.0293
     21 H3         15.1690    9.8678    6.8283 H           1 Y27       0.0293
     22 H4         15.1964    9.7210    4.3634 H           1 Y27       0.0271
     23 H5         15.2149    8.1260    5.1035 H           1 Y27       0.0271
     24 H6         17.6415    9.6032    3.9344 H           1 Y27       0.0355
     25 H7         18.9812    7.6074    4.5244 H           1 Y27       0.0271
     26 H8         17.5546    6.8155    5.1995 H           1 Y27       0.0271
     27 H9         18.9510    7.7619    6.9959 H           1 Y27       0.0293
     28 H10        18.9415    9.3527    6.2252 H           1 Y27       0.0293
     29 H11        16.0743    7.1842    2.8968 H           1 Y27       0.0850
     30 H12        16.0320    8.4445    0.7486 H           1 Y27       0.0284
     31 H13        16.8595    9.8191    1.5251 H           1 Y27       0.0284
     32 H14        15.2133    9.3402    2.0148 H           1 Y27       0.0284
     33 H15        18.2456    6.5519    2.6062 H           1 Y27       0.1997
     34 H16        18.7642    8.0939    2.2171 H           1 Y27       0.1997
     35 H17        17.8151    7.2242    1.1495 H           1 Y27       0.1997
     36 H18        18.2386   10.9771    7.6617 H           1 Y27       0.2307
     37 H19        17.1065   12.9409    9.0366 H           1 Y27       0.0596
     38 H20        17.6286   14.3046   10.9825 H           1 Y27       0.0771
     39 H21        20.2292   11.4455   12.4063 H           1 Y27       0.0771
     40 H22        19.7597    9.9975   10.5095 H           1 Y27       0.0596
@<TRIPOS>BOND
     1     1     2   2
     2     2     3   1
     3     2    12  am
     4     3     4   1
     5     3     8   1
     6     4     5   1
     7     5     6   1
     8     6     7   1
     9     6     9   1
    10     7     8   1
    11     9    10   1
    12     9    11   1
    13    12    13   1
    14    13    14  ar
    15    13    18  ar
    16    14    15  ar
    17    15    16  ar
    18    16    17  ar
    19    17    18  ar
    20     3    19   1
    21     4    20   1
    22     4    21   1
    23     5    22   1
    24     5    23   1
    25     6    24   1
    26     7    25   1
    27     7    26   1
    28     8    27   1
    29     8    28   1
    30     9    29   1
    31    10    30   1
    32    10    31   1
    33    10    32   1
    34    11    33   1
    35    11    34   1
    36    11    35   1
    37    12    36   1
    38    14    37   1
    39    15    38   1
    40    17    39   1
    41    18    40   1
@<TRIPOS>SUBSTRUCTURE
     1  Y27      2

