@<TRIPOS>MOLECULE
1q8t_ligand_029
    40    41
SMALL
GAST_HUCK
****
This file was generated by PARSER (from files_GN.cpp)

@<TRIPOS>ATOM
      1 O23        13.7536    9.7118    6.6339 O.2         1 Y27      -0.3826
      2 C22        14.3178    9.3482    5.6082 C.2         1 Y27       0.2105
      3 C31        13.5444    8.6672    4.5637 C.3         1 Y27       0.0554
      4 C36        12.1717    8.0904    5.0566 C.3         1 Y27      -0.0322
      5 C35        11.3903    7.3678    3.9326 C.3         1 Y27      -0.0428
      6 C34        11.1477    8.3096    2.7124 C.3         1 Y27       0.0020
      7 C33        12.5132    8.8708    2.1980 C.3         1 Y27      -0.0428
      8 C32        13.3260    9.5795    3.3137 C.3         1 Y27      -0.0322
      9 C41        10.2936    7.5982    1.6038 C.3         1 Y27      -0.0244
     10 C42         9.5840    8.5693    0.6288 C.3         1 Y27      -0.0215
     11 N43        11.0798    6.6370    0.8144 N.4         1 Y27       0.2207
     12 N21        15.5995    9.6321    5.4113 N.am        1 Y27      -0.2247
     13 C14        16.4885   10.2291    6.2645 C.ar        1 Y27       0.0867
     14 C15        16.4758   10.0728    7.6732 C.ar        1 Y27      -0.0140
     15 C16        17.4610   10.7032    8.4553 C.ar        1 Y27      -0.0065
     16 N11        18.4295   11.4373    7.8602 N.ar        1 Y27      -0.3199
     17 C12        18.4984   11.5859    6.5105 C.ar        1 Y27      -0.0065
     18 C13        17.5317   10.9761    5.6852 C.ar        1 Y27      -0.0140
     19 H1         14.1415    7.8013    4.2462 H           1 Y27       0.0544
     20 H2         11.5523    8.9044    5.4465 H           1 Y27       0.0293
     21 H3         12.3475    7.3810    5.8698 H           1 Y27       0.0293
     22 H4         10.4333    7.0374    4.3378 H           1 Y27       0.0271
     23 H5         11.9487    6.4841    3.6140 H           1 Y27       0.0271
     24 H6         10.5578    9.1580    3.0806 H           1 Y27       0.0355
     25 H7         12.3435    9.5827    1.3886 H           1 Y27       0.0271
     26 H8         13.1240    8.0554    1.8063 H           1 Y27       0.0271
     27 H9         14.2934    9.8616    2.8938 H           1 Y27       0.0293
     28 H10        12.8089   10.4956    3.6170 H           1 Y27       0.0293
     29 H11         9.4982    7.0250    2.0942 H           1 Y27       0.0850
     30 H12         8.9872    8.0003   -0.0884 H           1 Y27       0.0284
     31 H13        10.3107    9.1680    0.0781 H           1 Y27       0.0284
     32 H14         8.9173    9.2344    1.1799 H           1 Y27       0.0284
     33 H15        11.5826    6.0033    1.4381 H           1 Y27       0.1997
     34 H16        11.7462    7.1381    0.2203 H           1 Y27       0.1997
     35 H17        10.4463    6.0939    0.2249 H           1 Y27       0.1997
     36 H18        15.9448    9.4494    4.5166 H           1 Y27       0.2307
     37 H19        15.7906    9.4772    8.1390 H           1 Y27       0.0596
     38 H20        17.4644   10.5935    9.4729 H           1 Y27       0.0771
     39 H21        19.2604   12.1338    6.1022 H           1 Y27       0.0771
     40 H22        17.5986   11.0916    4.6704 H           1 Y27       0.0596
@<TRIPOS>BOND
     1     1     2   2
     2     2     3   1
     3     2    12  am
     4     3     4   1
     5     3     8   1
     6     4     5   1
     7     5     6   1
     8     6     7   1
     9     6     9   1
    10     7     8   1
    11     9    10   1
    12     9    11   1
    13    12    13   1
    14    13    14  ar
    15    13    18  ar
    16    14    15  ar
    17    15    16  ar
    18    16    17  ar
    19    17    18  ar
    20     3    19   1
    21     4    20   1
    22     4    21   1
    23     5    22   1
    24     5    23   1
    25     6    24   1
    26     7    25   1
    27     7    26   1
    28     8    27   1
    29     8    28   1
    30     9    29   1
    31    10    30   1
    32    10    31   1
    33    10    32   1
    34    11    33   1
    35    11    34   1
    36    11    35   1
    37    12    36   1
    38    14    37   1
    39    15    38   1
    40    17    39   1
    41    18    40   1
@<TRIPOS>SUBSTRUCTURE
     1  Y27      2

