@<TRIPOS>MOLECULE
1q8t_ligand_012
    40    41
SMALL
GAST_HUCK
****
This file was generated by PARSER (from files_GN.cpp)

@<TRIPOS>ATOM
      1 O23        13.2788    8.8051    2.2696 O.2         1 Y27      -0.3826
      2 C22        13.1021    7.5968    2.3875 C.2         1 Y27       0.2105
      3 C31        11.8716    7.0838    2.9970 C.3         1 Y27       0.0554
      4 C36        11.6197    7.6442    4.4324 C.3         1 Y27      -0.0322
      5 C35        10.9449    9.0499    4.4679 C.3         1 Y27      -0.0428
      6 C34         9.6765    9.1845    3.5586 C.3         1 Y27       0.0020
      7 C33        10.0283    8.6766    2.1210 C.3         1 Y27      -0.0428
      8 C32        10.6090    7.2425    2.0965 C.3         1 Y27      -0.0322
      9 C41         8.3553    8.6574    4.2379 C.3         1 Y27      -0.0244
     10 C42         7.1483    8.4368    3.2876 C.3         1 Y27      -0.0215
     11 N43         8.5172    7.4403    5.0459 N.4         1 Y27       0.2207
     12 N21        13.9637    6.7333    1.8586 N.am        1 Y27      -0.2247
     13 C14        15.1425    7.0032    1.2418 C.ar        1 Y27       0.0867
     14 C15        16.2724    7.4644    1.9543 C.ar        1 Y27      -0.0140
     15 C16        17.5003    7.5972    1.2784 C.ar        1 Y27      -0.0065
     16 N11        17.5820    7.2860   -0.0385 N.ar        1 Y27      -0.3199
     17 C12        16.5144    6.8581   -0.7606 C.ar        1 Y27      -0.0065
     18 C13        15.2696    6.6884   -0.1271 C.ar        1 Y27      -0.0140
     19 H1         11.9960    6.0018    3.1285 H           1 Y27       0.0544
     20 H2         12.5598    7.6806    4.9930 H           1 Y27       0.0293
     21 H3         11.0033    6.9280    4.9693 H           1 Y27       0.0293
     22 H4         11.6873    9.7865    4.1466 H           1 Y27       0.0271
     23 H5         10.6874    9.2967    5.5015 H           1 Y27       0.0271
     24 H6          9.5116   10.2612    3.4339 H           1 Y27       0.0355
     25 H7         10.7702    9.3489    1.6833 H           1 Y27       0.0271
     26 H8          9.1554    8.7276    1.4670 H           1 Y27       0.0271
     27 H9          9.8341    6.5500    2.4369 H           1 Y27       0.0293
     28 H10        10.8541    6.9666    1.0665 H           1 Y27       0.0293
     29 H11         8.0376    9.4252    4.9514 H           1 Y27       0.0850
     30 H12         6.2587    8.1735    3.8661 H           1 Y27       0.0284
     31 H13         7.3444    7.6198    2.5898 H           1 Y27       0.0284
     32 H14         6.9352    9.3494    2.7245 H           1 Y27       0.0284
     33 H15         9.0943    7.6598    5.8597 H           1 Y27       0.1997
     34 H16         8.9659    6.7081    4.4945 H           1 Y27       0.1997
     35 H17         7.6074    7.1124    5.3684 H           1 Y27       0.1997
     36 H18        13.6592    5.8197    1.7937 H           1 Y27       0.2307
     37 H19        16.2160    7.6506    2.9604 H           1 Y27       0.0596
     38 H20        18.3411    7.9025    1.7743 H           1 Y27       0.0771
     39 H21        16.6252    6.6385   -1.7486 H           1 Y27       0.0771
     40 H22        14.4707    6.3421   -0.6603 H           1 Y27       0.0596
@<TRIPOS>BOND
     1     1     2   2
     2     2     3   1
     3     2    12  am
     4     3     4   1
     5     3     8   1
     6     4     5   1
     7     5     6   1
     8     6     7   1
     9     6     9   1
    10     7     8   1
    11     9    10   1
    12     9    11   1
    13    12    13   1
    14    13    14  ar
    15    13    18  ar
    16    14    15  ar
    17    15    16  ar
    18    16    17  ar
    19    17    18  ar
    20     3    19   1
    21     4    20   1
    22     4    21   1
    23     5    22   1
    24     5    23   1
    25     6    24   1
    26     7    25   1
    27     7    26   1
    28     8    27   1
    29     8    28   1
    30     9    29   1
    31    10    30   1
    32    10    31   1
    33    10    32   1
    34    11    33   1
    35    11    34   1
    36    11    35   1
    37    12    36   1
    38    14    37   1
    39    15    38   1
    40    17    39   1
    41    18    40   1
@<TRIPOS>SUBSTRUCTURE
     1  Y27      2

