@<TRIPOS>MOLECULE
1q8t_ligand_076
    40    41
SMALL
GAST_HUCK
****
This file was generated by PARSER (from files_GN.cpp)

@<TRIPOS>ATOM
      1 O23        16.0646    9.3416    4.7992 O.2         1 Y27      -0.3826
      2 C22        15.3420    9.1492    5.7692 C.2         1 Y27       0.2105
      3 C31        13.9872    8.6313    5.5465 C.3         1 Y27       0.0554
      4 C36        13.0617    9.7474    4.9729 C.3         1 Y27      -0.0322
      5 C35        11.6214    9.2485    4.6834 C.3         1 Y27      -0.0428
      6 C34        11.6019    7.9950    3.7532 C.3         1 Y27       0.0020
      7 C33        12.5312    6.8754    4.3249 C.3         1 Y27      -0.0428
      8 C32        13.9680    7.3823    4.6098 C.3         1 Y27      -0.0322
      9 C41        10.1351    7.5161    3.4719 C.3         1 Y27      -0.0244
     10 C42        10.0278    6.5546    2.2610 C.3         1 Y27      -0.0215
     11 N43         9.5133    6.8857    4.6494 N.4         1 Y27       0.2207
     12 N21        15.7654    9.3922    7.0086 N.am        1 Y27      -0.2247
     13 C14        16.9696    9.9017    7.4009 C.ar        1 Y27       0.0867
     14 C15        17.6447   10.9586    6.7542 C.ar        1 Y27      -0.0140
     15 C16        18.8573   11.4392    7.2793 C.ar        1 Y27      -0.0065
     16 N11        19.3669   10.8874    8.4092 N.ar        1 Y27      -0.3199
     17 C12        18.7469    9.8819    9.0736 C.ar        1 Y27      -0.0065
     18 C13        17.5210    9.3808    8.5982 C.ar        1 Y27      -0.0140
     19 H1         13.5565    8.3192    6.5064 H           1 Y27       0.0544
     20 H2         13.4853   10.1387    4.0442 H           1 Y27       0.0293
     21 H3         12.9996   10.5682    5.6916 H           1 Y27       0.0293
     22 H4         11.0694   10.0645    4.2068 H           1 Y27       0.0271
     23 H5         11.1287    9.0226    5.6315 H           1 Y27       0.0271
     24 H6         12.0225    8.3148    2.7939 H           1 Y27       0.0355
     25 H7         12.6100    6.0566    3.6093 H           1 Y27       0.0271
     26 H8         12.1144    6.4764    5.2529 H           1 Y27       0.0271
     27 H9         14.5460    6.5735    5.0690 H           1 Y27       0.0293
     28 H10        14.4408    7.6307    3.6529 H           1 Y27       0.0293
     29 H11         9.5204    8.3886    3.2269 H           1 Y27       0.0850
     30 H12         8.9981    6.2129    2.1445 H           1 Y27       0.0284
     31 H13        10.6578    5.6758    2.3931 H           1 Y27       0.0284
     32 H14        10.3305    7.0651    1.3432 H           1 Y27       0.0284
     33 H15         9.6040    7.4874    5.4691 H           1 Y27       0.1997
     34 H16         9.9810    5.9959    4.8388 H           1 Y27       0.1997
     35 H17         8.5232    6.7089    4.4670 H           1 Y27       0.1997
     36 H18        15.1866    9.0820    7.7147 H           1 Y27       0.2307
     37 H19        17.2580   11.3906    5.9164 H           1 Y27       0.0596
     38 H20        19.3591   12.1979    6.8247 H           1 Y27       0.0771
     39 H21        19.1736    9.4901    9.9202 H           1 Y27       0.0771
     40 H22        17.0586    8.6174    9.1011 H           1 Y27       0.0596
@<TRIPOS>BOND
     1     1     2   2
     2     2     3   1
     3     2    12  am
     4     3     4   1
     5     3     8   1
     6     4     5   1
     7     5     6   1
     8     6     7   1
     9     6     9   1
    10     7     8   1
    11     9    10   1
    12     9    11   1
    13    12    13   1
    14    13    14  ar
    15    13    18  ar
    16    14    15  ar
    17    15    16  ar
    18    16    17  ar
    19    17    18  ar
    20     3    19   1
    21     4    20   1
    22     4    21   1
    23     5    22   1
    24     5    23   1
    25     6    24   1
    26     7    25   1
    27     7    26   1
    28     8    27   1
    29     8    28   1
    30     9    29   1
    31    10    30   1
    32    10    31   1
    33    10    32   1
    34    11    33   1
    35    11    34   1
    36    11    35   1
    37    12    36   1
    38    14    37   1
    39    15    38   1
    40    17    39   1
    41    18    40   1
@<TRIPOS>SUBSTRUCTURE
     1  Y27      2

