@<TRIPOS>MOLECULE
1q8t_ligand_005
    40    41
SMALL
GAST_HUCK
****
This file was generated by PARSER (from files_GN.cpp)

@<TRIPOS>ATOM
      1 O23        16.8155    6.5149   -0.6588 O.2         1 Y27      -0.3826
      2 C22        16.0607    7.4531   -0.3865 C.2         1 Y27       0.2105
      3 C31        15.6759    7.7307    0.9928 C.3         1 Y27       0.0554
      4 C36        14.1368    7.9661    1.1121 C.3         1 Y27      -0.0322
      5 C35        13.6875    8.2716    2.5660 C.3         1 Y27      -0.0428
      6 C34        14.1453    7.1645    3.5709 C.3         1 Y27       0.0020
      7 C33        15.6827    6.9352    3.4541 C.3         1 Y27      -0.0428
      8 C32        16.0955    6.6107    2.0012 C.3         1 Y27      -0.0322
      9 C41        13.6831    7.3890    5.0538 C.3         1 Y27      -0.0244
     10 C42        14.0480    8.7584    5.6850 C.3         1 Y27      -0.0215
     11 N43        12.2285    7.1826    5.1844 N.4         1 Y27       0.2207
     12 N21        15.6602    8.2697   -1.3648 N.am        1 Y27      -0.2247
     13 C14        15.8236    8.0766   -2.6993 C.ar        1 Y27       0.0867
     14 C15        15.0354    7.1295   -3.4046 C.ar        1 Y27      -0.0140
     15 C16        15.1785    7.0143   -4.7964 C.ar        1 Y27      -0.0065
     16 N11        16.0748    7.7934   -5.4537 N.ar        1 Y27      -0.3199
     17 C12        16.8511    8.7055   -4.8152 C.ar        1 Y27      -0.0065
     18 C13        16.7322    8.8821   -3.4249 C.ar        1 Y27      -0.0140
     19 H1         16.1901    8.6484    1.2888 H           1 Y27       0.0544
     20 H2         13.6079    7.0752    0.7577 H           1 Y27       0.0293
     21 H3         13.8377    8.8038    0.4788 H           1 Y27       0.0293
     22 H4         12.5980    8.3576    2.5822 H           1 Y27       0.0271
     23 H5         14.1022    9.2403    2.8578 H           1 Y27       0.0271
     24 H6         13.6685    6.2296    3.2456 H           1 Y27       0.0355
     25 H7         15.9799    6.1038    4.1007 H           1 Y27       0.0271
     26 H8         16.2248    7.8259    3.7820 H           1 Y27       0.0271
     27 H9         17.1755    6.4681    1.9665 H           1 Y27       0.0293
     28 H10        15.6204    5.6694    1.7141 H           1 Y27       0.0293
     29 H11        14.1454    6.6118    5.6726 H           1 Y27       0.0850
     30 H12        13.7252    8.7848    6.7274 H           1 Y27       0.0284
     31 H13        13.5571    9.5765    5.1560 H           1 Y27       0.0284
     32 H14        15.1266    8.9189    5.6635 H           1 Y27       0.0284
     33 H15        11.9857    6.2260    4.9068 H           1 Y27       0.1997
     34 H16        11.7288    7.8512    4.5923 H           1 Y27       0.1997
     35 H17        11.9591    7.3329    6.1576 H           1 Y27       0.1997
     36 H18        15.2001    9.0864   -1.0972 H           1 Y27       0.2307
     37 H19        14.3456    6.5615   -2.9079 H           1 Y27       0.0596
     38 H20        14.6176    6.3374   -5.3193 H           1 Y27       0.0771
     39 H21        17.5160    9.2628   -5.3591 H           1 Y27       0.0771
     40 H22        17.3152    9.5750   -2.9469 H           1 Y27       0.0596
@<TRIPOS>BOND
     1     1     2   2
     2     2     3   1
     3     2    12  am
     4     3     4   1
     5     3     8   1
     6     4     5   1
     7     5     6   1
     8     6     7   1
     9     6     9   1
    10     7     8   1
    11     9    10   1
    12     9    11   1
    13    12    13   1
    14    13    14  ar
    15    13    18  ar
    16    14    15  ar
    17    15    16  ar
    18    16    17  ar
    19    17    18  ar
    20     3    19   1
    21     4    20   1
    22     4    21   1
    23     5    22   1
    24     5    23   1
    25     6    24   1
    26     7    25   1
    27     7    26   1
    28     8    27   1
    29     8    28   1
    30     9    29   1
    31    10    30   1
    32    10    31   1
    33    10    32   1
    34    11    33   1
    35    11    34   1
    36    11    35   1
    37    12    36   1
    38    14    37   1
    39    15    38   1
    40    17    39   1
    41    18    40   1
@<TRIPOS>SUBSTRUCTURE
     1  Y27      2

