@<TRIPOS>MOLECULE
1q8t_ligand_071
    40    41
SMALL
GAST_HUCK
****
This file was generated by PARSER (from files_GN.cpp)

@<TRIPOS>ATOM
      1 O23        17.4267    6.8857   -0.2209 O.2         1 Y27      -0.3826
      2 C22        17.1190    7.8678   -0.8975 C.2         1 Y27       0.2105
      3 C31        16.7502    7.6755   -2.3019 C.3         1 Y27       0.0554
      4 C36        15.2516    8.0239   -2.5734 C.3         1 Y27      -0.0322
      5 C35        14.9609    9.5244   -2.8630 C.3         1 Y27      -0.0428
      6 C34        15.9039   10.1634   -3.9400 C.3         1 Y27       0.0020
      7 C33        17.3920    9.8938   -3.5498 C.3         1 Y27      -0.0428
      8 C32        17.6915    8.3872   -3.3283 C.3         1 Y27      -0.0322
      9 C41        15.5046    9.7608   -5.4129 C.3         1 Y27      -0.0244
     10 C42        14.4394   10.7138   -6.0200 C.3         1 Y27      -0.0215
     11 N43        16.6243    9.7080   -6.3709 N.4         1 Y27       0.2207
     12 N21        17.1401    9.0819   -0.3673 N.am        1 Y27      -0.2247
     13 C14        17.4134    9.4090    0.9232 C.ar        1 Y27       0.0867
     14 C15        16.6345    8.9086    1.9891 C.ar        1 Y27      -0.0140
     15 C16        16.9007    9.3461    3.2957 C.ar        1 Y27      -0.0065
     16 N11        17.9064   10.2309    3.5222 N.ar        1 Y27      -0.3199
     17 C12        18.6787   10.7270    2.5233 C.ar        1 Y27      -0.0065
     18 C13        18.4417   10.3340    1.1938 C.ar        1 Y27      -0.0140
     19 H1         16.8493    6.6033   -2.5150 H           1 Y27       0.0544
     20 H2         14.6432    7.7107   -1.7194 H           1 Y27       0.0293
     21 H3         14.9143    7.4369   -3.4314 H           1 Y27       0.0293
     22 H4         15.0503   10.0929   -1.9299 H           1 Y27       0.0271
     23 H5         13.9184    9.6169   -3.1844 H           1 Y27       0.0271
     24 H6         15.7761   11.2509   -3.8564 H           1 Y27       0.0355
     25 H7         17.6307   10.4527   -2.6390 H           1 Y27       0.0271
     26 H8         18.0603   10.2837   -4.3216 H           1 Y27       0.0271
     27 H9         17.5804    7.8859   -4.2917 H           1 Y27       0.0293
     28 H10        18.7346    8.2750   -3.0238 H           1 Y27       0.0293
     29 H11        15.0820    8.7527   -5.4103 H           1 Y27       0.0850
     30 H12        14.2174   10.4348   -7.0520 H           1 Y27       0.0284
     31 H13        14.8021   11.7442   -6.0187 H           1 Y27       0.0284
     32 H14        13.5115   10.6673   -5.4463 H           1 Y27       0.0284
     33 H15        17.2869    8.9845   -6.0913 H           1 Y27       0.1997
     34 H16        17.1048   10.6095   -6.4107 H           1 Y27       0.1997
     35 H17        16.2559    9.4774   -7.2962 H           1 Y27       0.1997
     36 H18        16.9777    9.8260   -0.9648 H           1 Y27       0.2307
     37 H19        15.8580    8.2626    1.8139 H           1 Y27       0.0596
     38 H20        16.3242    9.0268    4.0732 H           1 Y27       0.0771
     39 H21        19.4149   11.4005    2.7353 H           1 Y27       0.0771
     40 H22        19.0207   10.7102    0.4365 H           1 Y27       0.0596
@<TRIPOS>BOND
     1     1     2   2
     2     2     3   1
     3     2    12  am
     4     3     4   1
     5     3     8   1
     6     4     5   1
     7     5     6   1
     8     6     7   1
     9     6     9   1
    10     7     8   1
    11     9    10   1
    12     9    11   1
    13    12    13   1
    14    13    14  ar
    15    13    18  ar
    16    14    15  ar
    17    15    16  ar
    18    16    17  ar
    19    17    18  ar
    20     3    19   1
    21     4    20   1
    22     4    21   1
    23     5    22   1
    24     5    23   1
    25     6    24   1
    26     7    25   1
    27     7    26   1
    28     8    27   1
    29     8    28   1
    30     9    29   1
    31    10    30   1
    32    10    31   1
    33    10    32   1
    34    11    33   1
    35    11    34   1
    36    11    35   1
    37    12    36   1
    38    14    37   1
    39    15    38   1
    40    17    39   1
    41    18    40   1
@<TRIPOS>SUBSTRUCTURE
     1  Y27      2

