@<TRIPOS>MOLECULE
1q8t_ligand_066
    40    41
SMALL
GAST_HUCK
****
This file was generated by PARSER (from files_GN.cpp)

@<TRIPOS>ATOM
      1 O23        10.1098    8.1011    3.2221 O.2         1 Y27      -0.3826
      2 C22        10.9126    8.5185    4.0524 C.2         1 Y27       0.2105
      3 C31        12.3437    8.2282    3.9293 C.3         1 Y27       0.0554
      4 C36        12.7850    7.1752    4.9953 C.3         1 Y27      -0.0322
      5 C35        14.3054    6.8815    4.9293 C.3         1 Y27      -0.0428
      6 C34        14.7830    6.4509    3.5087 C.3         1 Y27       0.0020
      7 C33        14.3282    7.4894    2.4340 C.3         1 Y27      -0.0428
      8 C32        12.8012    7.7754    2.5026 C.3         1 Y27      -0.0322
      9 C41        16.3194    6.1451    3.4253 C.3         1 Y27      -0.0244
     10 C42        17.2779    7.2316    3.9820 C.3         1 Y27      -0.0215
     11 N43        16.6231    4.8735    4.1072 N.4         1 Y27       0.2207
     12 N21        10.5038    9.2975    5.0518 N.am        1 Y27      -0.2247
     13 C14         9.2528    9.7829    5.2356 C.ar        1 Y27       0.0867
     14 C15         9.0627   11.1753    5.1532 C.ar        1 Y27      -0.0140
     15 C16         7.7886   11.7132    5.3915 C.ar        1 Y27      -0.0065
     16 N11         6.7588   10.8909    5.7152 N.ar        1 Y27      -0.3199
     17 C12         6.9040    9.5473    5.8284 C.ar        1 Y27      -0.0065
     18 C13         8.1595    8.9540    5.5747 C.ar        1 Y27      -0.0140
     19 H1         12.8856    9.1603    4.1316 H           1 Y27       0.0544
     20 H2         12.2317    6.2463    4.8451 H           1 Y27       0.0293
     21 H3         12.5476    7.5486    5.9932 H           1 Y27       0.0293
     22 H4         14.5333    6.0959    5.6535 H           1 Y27       0.0271
     23 H5         14.8285    7.7890    5.2406 H           1 Y27       0.0271
     24 H6         14.2650    5.5163    3.2635 H           1 Y27       0.0355
     25 H7         14.5664    7.1038    1.4376 H           1 Y27       0.0271
     26 H8         14.8665    8.4272    2.5715 H           1 Y27       0.0271
     27 H9         12.5669    8.5623    1.7764 H           1 Y27       0.0293
     28 H10        12.2637    6.8711    2.2009 H           1 Y27       0.0293
     29 H11        16.5837    5.9851    2.3731 H           1 Y27       0.0850
     30 H12        18.3150    6.9697    3.7587 H           1 Y27       0.0284
     31 H13        17.1789    7.3186    5.0678 H           1 Y27       0.0284
     32 H14        17.0684    8.2015    3.5298 H           1 Y27       0.0284
     33 H15        16.0726    4.1158    3.6876 H           1 Y27       0.1997
     34 H16        16.4100    4.9575    5.1100 H           1 Y27       0.1997
     35 H17        17.6117    4.6560    4.0006 H           1 Y27       0.1997
     36 H18        11.2007    9.6818    5.6039 H           1 Y27       0.2307
     37 H19         9.8344   11.7974    4.9088 H           1 Y27       0.0596
     38 H20         7.6297   12.7165    5.3216 H           1 Y27       0.0771
     39 H21         6.1025    8.9705    6.0930 H           1 Y27       0.0771
     40 H22         8.2749    7.9433    5.6723 H           1 Y27       0.0596
@<TRIPOS>BOND
     1     1     2   2
     2     2     3   1
     3     2    12  am
     4     3     4   1
     5     3     8   1
     6     4     5   1
     7     5     6   1
     8     6     7   1
     9     6     9   1
    10     7     8   1
    11     9    10   1
    12     9    11   1
    13    12    13   1
    14    13    14  ar
    15    13    18  ar
    16    14    15  ar
    17    15    16  ar
    18    16    17  ar
    19    17    18  ar
    20     3    19   1
    21     4    20   1
    22     4    21   1
    23     5    22   1
    24     5    23   1
    25     6    24   1
    26     7    25   1
    27     7    26   1
    28     8    27   1
    29     8    28   1
    30     9    29   1
    31    10    30   1
    32    10    31   1
    33    10    32   1
    34    11    33   1
    35    11    34   1
    36    11    35   1
    37    12    36   1
    38    14    37   1
    39    15    38   1
    40    17    39   1
    41    18    40   1
@<TRIPOS>SUBSTRUCTURE
     1  Y27      2

