@<TRIPOS>MOLECULE
1q8t_ligand_068
    40    41
SMALL
GAST_HUCK
****
This file was generated by PARSER (from files_GN.cpp)

@<TRIPOS>ATOM
      1 O23         8.0327   11.7977   -0.2680 O.2         1 Y27      -0.3826
      2 C22         8.6989   10.8083   -0.5392 C.2         1 Y27       0.2105
      3 C31         9.4852   10.2072    0.5352 C.3         1 Y27       0.0554
      4 C36         9.1036    8.7206    0.8145 C.3         1 Y27      -0.0322
      5 C35         9.8842    8.1713    2.0381 C.3         1 Y27      -0.0428
      6 C34        11.4312    8.3147    1.8731 C.3         1 Y27       0.0020
      7 C33        11.8234    9.7813    1.5094 C.3         1 Y27      -0.0428
      8 C32        11.0203   10.3306    0.2972 C.3         1 Y27      -0.0322
      9 C41        12.2469    7.7581    3.0920 C.3         1 Y27      -0.0244
     10 C42        11.8575    8.3029    4.4937 C.3         1 Y27      -0.0215
     11 N43        12.1702    6.2875    3.1268 N.4         1 Y27       0.2207
     12 N21         8.7079   10.2797   -1.7629 N.am        1 Y27      -0.2247
     13 C14         8.0702   10.6546   -2.9251 C.ar        1 Y27       0.0867
     14 C15         7.3283   11.8458   -3.1273 C.ar        1 Y27      -0.0140
     15 C16         6.7392   12.1143   -4.3791 C.ar        1 Y27      -0.0065
     16 N11         6.9010   11.2374   -5.4002 N.ar        1 Y27      -0.3199
     17 C12         7.6009   10.0887   -5.2597 C.ar        1 Y27      -0.0065
     18 C13         8.1941    9.7723   -4.0225 C.ar        1 Y27      -0.0140
     19 H1          9.2712   10.7606    1.4632 H           1 Y27       0.0544
     20 H2          9.3197    8.1014   -0.0588 H           1 Y27       0.0293
     21 H3          8.0306    8.6477    1.0216 H           1 Y27       0.0293
     22 H4          9.6172    7.1216    2.1763 H           1 Y27       0.0271
     23 H5          9.5504    8.7182    2.9219 H           1 Y27       0.0271
     24 H6         11.7153    7.7031    1.0083 H           1 Y27       0.0355
     25 H7         12.8870    9.8289    1.2686 H           1 Y27       0.0271
     26 H8         11.6473   10.4348    2.3644 H           1 Y27       0.0271
     27 H9         11.2828   11.3810    0.1458 H           1 Y27       0.0293
     28 H10        11.3011    9.7810   -0.6048 H           1 Y27       0.0293
     29 H11        13.3041    7.9965    2.9365 H           1 Y27       0.0850
     30 H12        12.5179    7.8824    5.2572 H           1 Y27       0.0284
     31 H13        10.8331    8.0295    4.7522 H           1 Y27       0.0284
     32 H14        11.9534    9.3885    4.5282 H           1 Y27       0.0284
     33 H15        12.5442    5.9043    2.2582 H           1 Y27       0.1997
     34 H16        11.1967    5.9923    3.2339 H           1 Y27       0.1997
     35 H17        12.7159    5.9283    3.9143 H           1 Y27       0.1997
     36 H18         9.2566    9.4797   -1.8517 H           1 Y27       0.2307
     37 H19         7.2126   12.5361   -2.3900 H           1 Y27       0.0596
     38 H20         6.2008   12.9697   -4.5246 H           1 Y27       0.0771
     39 H21         7.6948    9.4605   -6.0591 H           1 Y27       0.0771
     40 H22         8.7126    8.9053   -3.9314 H           1 Y27       0.0596
@<TRIPOS>BOND
     1     1     2   2
     2     2     3   1
     3     2    12  am
     4     3     4   1
     5     3     8   1
     6     4     5   1
     7     5     6   1
     8     6     7   1
     9     6     9   1
    10     7     8   1
    11     9    10   1
    12     9    11   1
    13    12    13   1
    14    13    14  ar
    15    13    18  ar
    16    14    15  ar
    17    15    16  ar
    18    16    17  ar
    19    17    18  ar
    20     3    19   1
    21     4    20   1
    22     4    21   1
    23     5    22   1
    24     5    23   1
    25     6    24   1
    26     7    25   1
    27     7    26   1
    28     8    27   1
    29     8    28   1
    30     9    29   1
    31    10    30   1
    32    10    31   1
    33    10    32   1
    34    11    33   1
    35    11    34   1
    36    11    35   1
    37    12    36   1
    38    14    37   1
    39    15    38   1
    40    17    39   1
    41    18    40   1
@<TRIPOS>SUBSTRUCTURE
     1  Y27      2

