@<TRIPOS>MOLECULE
1q8t_ligand_079
    40    41
SMALL
GAST_HUCK
****
This file was generated by PARSER (from files_GN.cpp)

@<TRIPOS>ATOM
      1 O23        16.2123    5.2131    2.8634 O.2         1 Y27      -0.3826
      2 C22        16.4212    6.3670    3.2128 C.2         1 Y27       0.2105
      3 C31        16.6003    6.6484    4.6450 C.3         1 Y27       0.0554
      4 C36        17.9689    7.3070    5.0211 C.3         1 Y27      -0.0322
      5 C35        18.0272    8.8522    4.8316 C.3         1 Y27      -0.0428
      6 C34        16.8407    9.6197    5.4921 C.3         1 Y27       0.0020
      7 C33        15.4965    8.9893    4.9887 C.3         1 Y27      -0.0428
      8 C32        15.4034    7.4576    5.2312 C.3         1 Y27      -0.0322
      9 C41        16.9217    9.7621    7.0559 C.3         1 Y27      -0.0244
     10 C42        18.2592   10.3366    7.5965 C.3         1 Y27      -0.0215
     11 N43        15.8588   10.6612    7.5372 N.4         1 Y27       0.2207
     12 N21        16.5140    7.3413    2.3083 N.am        1 Y27      -0.2247
     13 C14        16.3802    7.2607    0.9544 C.ar        1 Y27       0.0867
     14 C15        17.3004    7.9984    0.1753 C.ar        1 Y27      -0.0140
     15 C16        17.1848    7.9861   -1.2263 C.ar        1 Y27      -0.0065
     16 N11        16.1722    7.2995   -1.8123 N.ar        1 Y27      -0.3199
     17 C12        15.2551    6.6017   -1.0982 C.ar        1 Y27      -0.0065
     18 C13        15.3410    6.5639    0.3075 C.ar        1 Y27      -0.0140
     19 H1         16.5937    5.6811    5.1605 H           1 Y27       0.0544
     20 H2         18.7719    6.8458    4.4408 H           1 Y27       0.0293
     21 H3         18.1824    7.0980    6.0716 H           1 Y27       0.0293
     22 H4         18.0461    9.0859    3.7700 H           1 Y27       0.0271
     23 H5         18.9775    9.2178    5.2217 H           1 Y27       0.0271
     24 H6         16.8790   10.6405    5.0962 H           1 Y27       0.0355
     25 H7         15.3889    9.1822    3.9198 H           1 Y27       0.0271
     26 H8         14.6448    9.4700    5.4683 H           1 Y27       0.0271
     27 H9         15.3627    7.2839    6.3077 H           1 Y27       0.0293
     28 H10        14.4586    7.0855    4.8227 H           1 Y27       0.0293
     29 H11        16.7680    8.7886    7.5236 H           1 Y27       0.0850
     30 H12        18.1695   10.5785    8.6587 H           1 Y27       0.0284
     31 H13        18.5333   11.2434    7.0553 H           1 Y27       0.0284
     32 H14        19.0604    9.6032    7.4980 H           1 Y27       0.0284
     33 H15        14.9470   10.3018    7.2476 H           1 Y27       0.1997
     34 H16        15.9946   11.5976    7.1500 H           1 Y27       0.1997
     35 H17        15.8932   10.7096    8.5576 H           1 Y27       0.1997
     36 H18        16.7809    8.1975    2.6377 H           1 Y27       0.2307
     37 H19        18.0646    8.5141    0.6194 H           1 Y27       0.0596
     38 H20        17.8644    8.4819   -1.8058 H           1 Y27       0.0771
     39 H21        14.5059    6.1061   -1.5842 H           1 Y27       0.0771
     40 H22        14.6318    6.0555    0.8432 H           1 Y27       0.0596
@<TRIPOS>BOND
     1     1     2   2
     2     2     3   1
     3     2    12  am
     4     3     4   1
     5     3     8   1
     6     4     5   1
     7     5     6   1
     8     6     7   1
     9     6     9   1
    10     7     8   1
    11     9    10   1
    12     9    11   1
    13    12    13   1
    14    13    14  ar
    15    13    18  ar
    16    14    15  ar
    17    15    16  ar
    18    16    17  ar
    19    17    18  ar
    20     3    19   1
    21     4    20   1
    22     4    21   1
    23     5    22   1
    24     5    23   1
    25     6    24   1
    26     7    25   1
    27     7    26   1
    28     8    27   1
    29     8    28   1
    30     9    29   1
    31    10    30   1
    32    10    31   1
    33    10    32   1
    34    11    33   1
    35    11    34   1
    36    11    35   1
    37    12    36   1
    38    14    37   1
    39    15    38   1
    40    17    39   1
    41    18    40   1
@<TRIPOS>SUBSTRUCTURE
     1  Y27      2

