@<TRIPOS>MOLECULE
1q8t_ligand_074
    40    41
SMALL
GAST_HUCK
****
This file was generated by PARSER (from files_GN.cpp)

@<TRIPOS>ATOM
      1 O23        15.4758   10.4125    0.0737 O.2         1 Y27      -0.3826
      2 C22        14.6094   10.4545   -0.7925 C.2         1 Y27       0.2105
      3 C31        14.8713    9.8787   -2.1121 C.3         1 Y27       0.0554
      4 C36        15.7947   10.8097   -2.9732 C.3         1 Y27      -0.0322
      5 C35        17.2991   10.4716   -2.8625 C.3         1 Y27      -0.0428
      6 C34        17.6067    8.9794   -3.1731 C.3         1 Y27       0.0020
      7 C33        16.8481    8.1115   -2.1227 C.3         1 Y27      -0.0428
      8 C32        15.3203    8.3768   -2.0274 C.3         1 Y27      -0.0322
      9 C41        17.4832    8.5104   -4.6765 C.3         1 Y27      -0.0244
     10 C42        16.1168    7.9981   -5.2138 C.3         1 Y27      -0.0215
     11 N43        17.9968    9.5129   -5.6329 N.4         1 Y27       0.2207
     12 N21        13.4683   11.1007   -0.6074 N.am        1 Y27      -0.2247
     13 C14        13.0508   11.7742    0.4948 C.ar        1 Y27       0.0867
     14 C15        12.4866   13.0482    0.2857 C.ar        1 Y27      -0.0140
     15 C16        11.9858   13.7678    1.3802 C.ar        1 Y27      -0.0065
     16 N11        12.0111   13.2218    2.6207 N.ar        1 Y27      -0.3199
     17 C12        12.5326   11.9886    2.8607 C.ar        1 Y27      -0.0065
     18 C13        13.0756   11.2365    1.8041 C.ar        1 Y27      -0.0140
     19 H1         13.9148    9.8612   -2.6439 H           1 Y27       0.0544
     20 H2         15.6519   11.8649   -2.7020 H           1 Y27       0.0293
     21 H3         15.5073   10.7460   -4.0279 H           1 Y27       0.0293
     22 H4         17.6361   10.7061   -1.8506 H           1 Y27       0.0271
     23 H5         17.8689   11.1140   -3.5313 H           1 Y27       0.0271
     24 H6         18.6677    8.8573   -2.9364 H           1 Y27       0.0355
     25 H7         17.2870    8.3078   -1.1346 H           1 Y27       0.0271
     26 H8         17.0125    7.0487   -2.3304 H           1 Y27       0.0271
     27 H9         14.8305    7.8153   -2.8236 H           1 Y27       0.0293
     28 H10        14.9680    7.9269   -1.0900 H           1 Y27       0.0293
     29 H11        18.1654    7.6637   -4.7750 H           1 Y27       0.0850
     30 H12        16.1878    7.7901   -6.2834 H           1 Y27       0.0284
     31 H13        15.3226    8.7237   -5.0669 H           1 Y27       0.0284
     32 H14        15.8386    7.0661   -4.7258 H           1 Y27       0.0284
     33 H15        19.0060    9.6409   -5.5140 H           1 Y27       0.1997
     34 H16        17.5133   10.4033   -5.5036 H           1 Y27       0.1997
     35 H17        17.8278    9.1935   -6.5913 H           1 Y27       0.1997
     36 H18        12.9021   11.2054   -1.3909 H           1 Y27       0.2307
     37 H19        12.4513   13.4624   -0.6514 H           1 Y27       0.0596
     38 H20        11.5786   14.6902    1.2310 H           1 Y27       0.0771
     39 H21        12.5140   11.6092    3.8086 H           1 Y27       0.0771
     40 H22        13.4476   10.3009    1.9831 H           1 Y27       0.0596
@<TRIPOS>BOND
     1     1     2   2
     2     2     3   1
     3     2    12  am
     4     3     4   1
     5     3     8   1
     6     4     5   1
     7     5     6   1
     8     6     7   1
     9     6     9   1
    10     7     8   1
    11     9    10   1
    12     9    11   1
    13    12    13   1
    14    13    14  ar
    15    13    18  ar
    16    14    15  ar
    17    15    16  ar
    18    16    17  ar
    19    17    18  ar
    20     3    19   1
    21     4    20   1
    22     4    21   1
    23     5    22   1
    24     5    23   1
    25     6    24   1
    26     7    25   1
    27     7    26   1
    28     8    27   1
    29     8    28   1
    30     9    29   1
    31    10    30   1
    32    10    31   1
    33    10    32   1
    34    11    33   1
    35    11    34   1
    36    11    35   1
    37    12    36   1
    38    14    37   1
    39    15    38   1
    40    17    39   1
    41    18    40   1
@<TRIPOS>SUBSTRUCTURE
     1  Y27      2

