@<TRIPOS>MOLECULE
1q8t_ligand_058
    40    41
SMALL
GAST_HUCK
****
This file was generated by PARSER (from files_GN.cpp)

@<TRIPOS>ATOM
      1 O23        10.9314    9.6053    2.2870 O.2         1 Y27      -0.3826
      2 C22        11.2293   10.5651    2.9864 C.2         1 Y27       0.2105
      3 C31        12.4381   11.3427    2.6924 C.3         1 Y27       0.0554
      4 C36        13.4562   10.6563    1.7218 C.3         1 Y27      -0.0322
      5 C35        13.0280   10.7109    0.2279 C.3         1 Y27      -0.0428
      6 C34        12.7044   12.1569   -0.2760 C.3         1 Y27       0.0020
      7 C33        11.6634   12.7974    0.6982 C.3         1 Y27      -0.0428
      8 C32        12.1306   12.7844    2.1806 C.3         1 Y27      -0.0322
      9 C41        13.9676   13.0526   -0.5610 C.3         1 Y27      -0.0244
     10 C42        14.9355   12.4535   -1.6161 C.3         1 Y27      -0.0215
     11 N43        13.5835   14.3906   -1.0499 N.4         1 Y27       0.2207
     12 N21        10.4648   10.9147    4.0193 N.am        1 Y27      -0.2247
     13 C14         9.3706   10.2766    4.5390 C.ar        1 Y27       0.0867
     14 C15         9.1906    8.8715    4.5211 C.ar        1 Y27      -0.0140
     15 C16         8.0398    8.3065    5.0966 C.ar        1 Y27      -0.0065
     16 N11         7.1113    9.1093    5.6735 N.ar        1 Y27      -0.3199
     17 C12         7.2540   10.4578    5.7335 C.ar        1 Y27      -0.0065
     18 C13         8.3970   11.0699    5.1851 C.ar        1 Y27      -0.0140
     19 H1         12.9556   11.4456    3.6515 H           1 Y27       0.0544
     20 H2         13.6041    9.6137    2.0167 H           1 Y27       0.0293
     21 H3         14.4254   11.1505    1.8171 H           1 Y27       0.0293
     22 H4         12.1395   10.0897    0.0935 H           1 Y27       0.0271
     23 H5         13.8073   10.2512   -0.3789 H           1 Y27       0.0271
     24 H6         12.1931   12.0426   -1.2357 H           1 Y27       0.0355
     25 H7         10.7298   12.2350    0.6209 H           1 Y27       0.0271
     26 H8         11.4291   13.8218    0.4034 H           1 Y27       0.0271
     27 H9         13.0348   13.3943    2.2703 H           1 Y27       0.0293
     28 H10        11.3732   13.2587    2.8097 H           1 Y27       0.0293
     29 H11        14.5272   13.2028    0.3633 H           1 Y27       0.0850
     30 H12        15.7397   13.1583   -1.8353 H           1 Y27       0.0284
     31 H13        14.4038   12.2365   -2.5454 H           1 Y27       0.0284
     32 H14        15.3983   11.5370   -1.2516 H           1 Y27       0.0284
     33 H15        13.1363   14.9202   -0.2992 H           1 Y27       0.1997
     34 H16        12.9334   14.2963   -1.8327 H           1 Y27       0.1997
     35 H17        14.4125   14.9009   -1.3629 H           1 Y27       0.1997
     36 H18        10.6997   11.7510    4.4525 H           1 Y27       0.2307
     37 H19         9.8952    8.2485    4.1204 H           1 Y27       0.0596
     38 H20         7.9022    7.2934    5.0903 H           1 Y27       0.0771
     39 H21         6.5274   11.0194    6.1796 H           1 Y27       0.0771
     40 H22         8.5024   12.0848    5.2442 H           1 Y27       0.0596
@<TRIPOS>BOND
     1     1     2   2
     2     2     3   1
     3     2    12  am
     4     3     4   1
     5     3     8   1
     6     4     5   1
     7     5     6   1
     8     6     7   1
     9     6     9   1
    10     7     8   1
    11     9    10   1
    12     9    11   1
    13    12    13   1
    14    13    14  ar
    15    13    18  ar
    16    14    15  ar
    17    15    16  ar
    18    16    17  ar
    19    17    18  ar
    20     3    19   1
    21     4    20   1
    22     4    21   1
    23     5    22   1
    24     5    23   1
    25     6    24   1
    26     7    25   1
    27     7    26   1
    28     8    27   1
    29     8    28   1
    30     9    29   1
    31    10    30   1
    32    10    31   1
    33    10    32   1
    34    11    33   1
    35    11    34   1
    36    11    35   1
    37    12    36   1
    38    14    37   1
    39    15    38   1
    40    17    39   1
    41    18    40   1
@<TRIPOS>SUBSTRUCTURE
     1  Y27      2

