@<TRIPOS>MOLECULE
1q8t_ligand_018
    40    41
SMALL
GAST_HUCK
****
This file was generated by PARSER (from files_GN.cpp)

@<TRIPOS>ATOM
      1 O23        11.0126    8.3107    3.1570 O.2         1 Y27      -0.3826
      2 C22        11.7030    8.1161    2.1583 C.2         1 Y27       0.2105
      3 C31        13.1257    7.8525    2.3190 C.3         1 Y27       0.0554
      4 C36        13.9363    9.1776    2.1971 C.3         1 Y27      -0.0322
      5 C35        15.4623    8.9336    2.3261 C.3         1 Y27      -0.0428
      6 C34        15.8418    8.1889    3.6447 C.3         1 Y27       0.0020
      7 C33        15.0400    6.8506    3.7425 C.3         1 Y27      -0.0428
      8 C32        13.5066    7.0997    3.6335 C.3         1 Y27      -0.0322
      9 C41        17.4039    8.0829    3.8111 C.3         1 Y27      -0.0244
     10 C42        17.8845    7.3123    5.0645 C.3         1 Y27      -0.0215
     11 N43        18.1213    7.5362    2.6458 N.4         1 Y27       0.2207
     12 N21        11.2336    8.3300    0.9362 N.am        1 Y27      -0.2247
     13 C14         9.9841    8.6884    0.5170 C.ar        1 Y27       0.0867
     14 C15         8.7801    8.4511    1.2257 C.ar        1 Y27      -0.0140
     15 C16         7.5533    8.8569    0.6726 C.ar        1 Y27      -0.0065
     16 N11         7.5298    9.4857   -0.5274 N.ar        1 Y27      -0.3199
     17 C12         8.6546    9.7294   -1.2465 C.ar        1 Y27      -0.0065
     18 C13         9.9063    9.3407   -0.7323 C.ar        1 Y27      -0.0140
     19 H1         13.4276    7.1935    1.4971 H           1 Y27       0.0544
     20 H2         13.6181    9.8852    2.9685 H           1 Y27       0.0293
     21 H3         13.7475    9.6401    1.2246 H           1 Y27       0.0293
     22 H4         15.9760    9.8971    2.2819 H           1 Y27       0.0271
     23 H5         15.7826    8.3474    1.4632 H           1 Y27       0.0271
     24 H6         15.5000    8.8161    4.4771 H           1 Y27       0.0355
     25 H7         15.2370    6.3713    4.7078 H           1 Y27       0.0271
     26 H8         15.3662    6.1663    2.9525 H           1 Y27       0.0271
     27 H9         12.9946    6.1354    3.6710 H           1 Y27       0.0293
     28 H10        13.1885    7.6813    4.5001 H           1 Y27       0.0293
     29 H11        17.7687    9.1099    3.9254 H           1 Y27       0.0850
     30 H12        18.9616    7.4436    5.2004 H           1 Y27       0.0284
     31 H13        17.6881    6.2407    4.9655 H           1 Y27       0.0284
     32 H14        17.3816    7.6797    5.9625 H           1 Y27       0.0284
     33 H15        17.7691    7.9530    1.7773 H           1 Y27       0.1997
     34 H16        18.0395    6.5133    2.6114 H           1 Y27       0.1997
     35 H17        19.1070    7.7905    2.7521 H           1 Y27       0.1997
     36 H18        11.8928    8.2679    0.2230 H           1 Y27       0.2307
     37 H19         8.7780    7.9407    2.1083 H           1 Y27       0.0596
     38 H20         6.6787    8.6771    1.1743 H           1 Y27       0.0771
     39 H21         8.5810   10.1973   -2.1500 H           1 Y27       0.0771
     40 H22        10.7457    9.5314   -1.2815 H           1 Y27       0.0596
@<TRIPOS>BOND
     1     1     2   2
     2     2     3   1
     3     2    12  am
     4     3     4   1
     5     3     8   1
     6     4     5   1
     7     5     6   1
     8     6     7   1
     9     6     9   1
    10     7     8   1
    11     9    10   1
    12     9    11   1
    13    12    13   1
    14    13    14  ar
    15    13    18  ar
    16    14    15  ar
    17    15    16  ar
    18    16    17  ar
    19    17    18  ar
    20     3    19   1
    21     4    20   1
    22     4    21   1
    23     5    22   1
    24     5    23   1
    25     6    24   1
    26     7    25   1
    27     7    26   1
    28     8    27   1
    29     8    28   1
    30     9    29   1
    31    10    30   1
    32    10    31   1
    33    10    32   1
    34    11    33   1
    35    11    34   1
    36    11    35   1
    37    12    36   1
    38    14    37   1
    39    15    38   1
    40    17    39   1
    41    18    40   1
@<TRIPOS>SUBSTRUCTURE
     1  Y27      2

