@<TRIPOS>MOLECULE
1q8t_ligand_032
    40    41
SMALL
GAST_HUCK
****
This file was generated by PARSER (from files_GN.cpp)

@<TRIPOS>ATOM
      1 O23        13.0048    8.1649    1.1515 O.2         1 Y27      -0.3826
      2 C22        13.1841    9.3576    1.3708 C.2         1 Y27       0.2105
      3 C31        12.0579   10.2121    1.7717 C.3         1 Y27       0.0554
      4 C36        10.6790    9.4932    1.9286 C.3         1 Y27      -0.0322
      5 C35        10.5721    8.6230    3.2148 C.3         1 Y27      -0.0428
      6 C34        10.9896    9.3316    4.5486 C.3         1 Y27       0.0020
      7 C33        12.2946   10.1717    4.3550 C.3         1 Y27      -0.0428
      8 C32        12.3314   11.0363    3.0669 C.3         1 Y27      -0.0322
      9 C41         9.8467   10.0592    5.3502 C.3         1 Y27      -0.0244
     10 C42         9.2326   11.3408    4.7389 C.3         1 Y27      -0.0215
     11 N43         8.7389    9.1358    5.6564 N.4         1 Y27       0.2207
     12 N21        14.4037    9.8779    1.2643 N.am        1 Y27      -0.2247
     13 C14        15.5573    9.2488    0.8837 C.ar        1 Y27       0.0867
     14 C15        15.6328    8.3790   -0.2307 C.ar        1 Y27      -0.0140
     15 C16        16.8694    7.7997   -0.5752 C.ar        1 Y27      -0.0065
     16 N11        17.9779    8.0872    0.1539 N.ar        1 Y27      -0.3199
     17 C12        17.9531    8.9273    1.2192 C.ar        1 Y27      -0.0065
     18 C13        16.7401    9.5331    1.6018 C.ar        1 Y27      -0.0140
     19 H1         11.9335   10.9304    0.9558 H           1 Y27       0.0544
     20 H2         10.4876    8.8633    1.0546 H           1 Y27       0.0293
     21 H3          9.8884   10.2451    1.9399 H           1 Y27       0.0293
     22 H4         11.2150    7.7469    3.0812 H           1 Y27       0.0271
     23 H5          9.5522    8.2405    3.2927 H           1 Y27       0.0271
     24 H6         11.2861    8.5153    5.2196 H           1 Y27       0.0355
     25 H7         13.1451    9.4853    4.3093 H           1 Y27       0.0271
     26 H8         12.4550   10.8180    5.2202 H           1 Y27       0.0271
     27 H9         11.5965   11.8347    3.1359 H           1 Y27       0.0293
     28 H10        13.2954   11.5381    3.0012 H           1 Y27       0.0293
     29 H11        10.2639   10.3462    6.3209 H           1 Y27       0.0850
     30 H12         8.4396   11.7180    5.3886 H           1 Y27       0.0284
     31 H13         8.7989   11.1402    3.7605 H           1 Y27       0.0284
     32 H14         9.9832   12.1246    4.6536 H           1 Y27       0.0284
     33 H15         9.1064    8.2979    6.1145 H           1 Y27       0.1997
     34 H16         8.2519    8.8777    4.7928 H           1 Y27       0.1997
     35 H17         8.0809    9.5994    6.2889 H           1 Y27       0.1997
     36 H18        14.5085   10.7938    1.5702 H           1 Y27       0.2307
     37 H19        14.8095    8.1811   -0.8040 H           1 Y27       0.0596
     38 H20        16.9385    7.1668   -1.3752 H           1 Y27       0.0771
     39 H21        18.8152    9.1113    1.7383 H           1 Y27       0.0771
     40 H22        16.7251   10.1562    2.4132 H           1 Y27       0.0596
@<TRIPOS>BOND
     1     1     2   2
     2     2     3   1
     3     2    12  am
     4     3     4   1
     5     3     8   1
     6     4     5   1
     7     5     6   1
     8     6     7   1
     9     6     9   1
    10     7     8   1
    11     9    10   1
    12     9    11   1
    13    12    13   1
    14    13    14  ar
    15    13    18  ar
    16    14    15  ar
    17    15    16  ar
    18    16    17  ar
    19    17    18  ar
    20     3    19   1
    21     4    20   1
    22     4    21   1
    23     5    22   1
    24     5    23   1
    25     6    24   1
    26     7    25   1
    27     7    26   1
    28     8    27   1
    29     8    28   1
    30     9    29   1
    31    10    30   1
    32    10    31   1
    33    10    32   1
    34    11    33   1
    35    11    34   1
    36    11    35   1
    37    12    36   1
    38    14    37   1
    39    15    38   1
    40    17    39   1
    41    18    40   1
@<TRIPOS>SUBSTRUCTURE
     1  Y27      2

