@<TRIPOS>MOLECULE
1q8t_ligand_060
    40    41
SMALL
GAST_HUCK
****
This file was generated by PARSER (from files_GN.cpp)

@<TRIPOS>ATOM
      1 O23         9.8848    9.4803    3.3589 O.2         1 Y27      -0.3826
      2 C22        10.7759    9.8345    2.5926 C.2         1 Y27       0.2105
      3 C31        12.1365   10.0981    3.0737 C.3         1 Y27       0.0554
      4 C36        12.3291   10.0588    4.6217 C.3         1 Y27      -0.0322
      5 C35        12.2873    8.6214    5.2040 C.3         1 Y27      -0.0428
      6 C34        13.3119    7.6416    4.5443 C.3         1 Y27       0.0020
      7 C33        13.2208    7.7311    2.9796 C.3         1 Y27      -0.0428
      8 C32        13.2109    9.1789    2.4102 C.3         1 Y27      -0.0322
      9 C41        14.7613    7.7270    5.1473 C.3         1 Y27      -0.0244
     10 C42        15.4124    6.3253    5.3173 C.3         1 Y27      -0.0215
     11 N43        15.7019    8.5679    4.3898 N.4         1 Y27       0.2207
     12 N21        10.5464   10.0183    1.2989 N.am        1 Y27      -0.2247
     13 C14         9.4426    9.8194    0.5122 C.ar        1 Y27       0.0867
     14 C15         8.1327    9.5205    0.9553 C.ar        1 Y27      -0.0140
     15 C16         7.1090    9.3212    0.0110 C.ar        1 Y27      -0.0065
     16 N11         7.3791    9.4289   -1.3140 N.ar        1 Y27      -0.3199
     17 C12         8.6190    9.7239   -1.7819 C.ar        1 Y27      -0.0065
     18 C13         9.6779    9.9138   -0.8778 C.ar        1 Y27      -0.0140
     19 H1         12.3595   11.1296    2.7734 H           1 Y27       0.0544
     20 H2         11.5567   10.6711    5.1075 H           1 Y27       0.0293
     21 H3         13.2936   10.5003    4.8713 H           1 Y27       0.0293
     22 H4         11.2762    8.2167    5.0621 H           1 Y27       0.0271
     23 H5         12.4507    8.6707    6.2836 H           1 Y27       0.0271
     24 H6         12.9319    6.6449    4.8071 H           1 Y27       0.0355
     25 H7         12.3019    7.2311    2.6537 H           1 Y27       0.0271
     26 H8         14.0576    7.1771    2.5368 H           1 Y27       0.0271
     27 H9         14.1886    9.6362    2.5680 H           1 Y27       0.0293
     28 H10        13.0673    9.1279    1.3294 H           1 Y27       0.0293
     29 H11        14.7110    8.1607    6.1492 H           1 Y27       0.0850
     30 H12        16.4312    6.4199    5.7064 H           1 Y27       0.0284
     31 H13        15.4514    5.7972    4.3642 H           1 Y27       0.0284
     32 H14        14.8336    5.7314    6.0288 H           1 Y27       0.0284
     33 H15        15.3407    9.5220    4.3164 H           1 Y27       0.1997
     34 H16        15.8409    8.1787    3.4577 H           1 Y27       0.1997
     35 H17        16.6057    8.5918    4.8794 H           1 Y27       0.1997
     36 H18        11.3246   10.3273    0.7974 H           1 Y27       0.2307
     37 H19         7.9042    9.4426    1.9478 H           1 Y27       0.0596
     38 H20         6.1627    9.0971    0.3166 H           1 Y27       0.0771
     39 H21         8.7808    9.7889   -2.7865 H           1 Y27       0.0771
     40 H22        10.6142   10.1070   -1.2356 H           1 Y27       0.0596
@<TRIPOS>BOND
     1     1     2   2
     2     2     3   1
     3     2    12  am
     4     3     4   1
     5     3     8   1
     6     4     5   1
     7     5     6   1
     8     6     7   1
     9     6     9   1
    10     7     8   1
    11     9    10   1
    12     9    11   1
    13    12    13   1
    14    13    14  ar
    15    13    18  ar
    16    14    15  ar
    17    15    16  ar
    18    16    17  ar
    19    17    18  ar
    20     3    19   1
    21     4    20   1
    22     4    21   1
    23     5    22   1
    24     5    23   1
    25     6    24   1
    26     7    25   1
    27     7    26   1
    28     8    27   1
    29     8    28   1
    30     9    29   1
    31    10    30   1
    32    10    31   1
    33    10    32   1
    34    11    33   1
    35    11    34   1
    36    11    35   1
    37    12    36   1
    38    14    37   1
    39    15    38   1
    40    17    39   1
    41    18    40   1
@<TRIPOS>SUBSTRUCTURE
     1  Y27      2

