@<TRIPOS>MOLECULE
1q8t_ligand_075
    40    41
SMALL
GAST_HUCK
****
This file was generated by PARSER (from files_GN.cpp)

@<TRIPOS>ATOM
      1 O23        11.8738   11.4950   -0.4505 O.2         1 Y27      -0.3826
      2 C22        12.6209   10.7445    0.1851 C.2         1 Y27       0.2105
      3 C31        13.8685   10.2594   -0.4053 C.3         1 Y27       0.0554
      4 C36        13.9835   10.4891   -1.9447 C.3         1 Y27      -0.0322
      5 C35        15.2657    9.8515   -2.5447 C.3         1 Y27      -0.0428
      6 C34        16.5703   10.3753   -1.8689 C.3         1 Y27       0.0020
      7 C33        16.4441   10.2097   -0.3144 C.3         1 Y27      -0.0428
      8 C32        15.1481   10.8313    0.2804 C.3         1 Y27      -0.0322
      9 C41        17.9075    9.7848   -2.4686 C.3         1 Y27      -0.0244
     10 C42        18.8434    8.9931   -1.5028 C.3         1 Y27      -0.0215
     11 N43        17.6880    8.9342   -3.6600 N.4         1 Y27       0.2207
     12 N21        12.3167   10.3981    1.4356 N.am        1 Y27      -0.2247
     13 C14        11.1355   10.5775    2.1091 C.ar        1 Y27       0.0867
     14 C15         9.8899   10.0963    1.6495 C.ar        1 Y27      -0.0140
     15 C16         8.7367   10.2576    2.4414 C.ar        1 Y27      -0.0065
     16 N11         8.8263   10.9057    3.6355 N.ar        1 Y27      -0.3199
     17 C12        10.0042   11.3670    4.1254 C.ar        1 Y27      -0.0065
     18 C13        11.1878   11.2160    3.3745 C.ar        1 Y27      -0.0140
     19 H1         13.8617    9.1751   -0.2411 H           1 Y27       0.0544
     20 H2         13.9773   11.5601   -2.1522 H           1 Y27       0.0293
     21 H3         13.1176   10.0647   -2.4466 H           1 Y27       0.0293
     22 H4         15.2837   10.0930   -3.6096 H           1 Y27       0.0271
     23 H5         15.2120    8.7648   -2.4338 H           1 Y27       0.0271
     24 H6         16.6005   11.4562   -2.0558 H           1 Y27       0.0355
     25 H7         17.3054   10.6632    0.1788 H           1 Y27       0.0271
     26 H8         16.4420    9.1442   -0.0608 H           1 Y27       0.0271
     27 H9         15.1229   10.6145    1.3549 H           1 Y27       0.0293
     28 H10        15.1700   11.9175    0.1513 H           1 Y27       0.0293
     29 H11        18.4994   10.6426   -2.8226 H           1 Y27       0.0850
     30 H12        19.7111    8.6041   -2.0563 H           1 Y27       0.0284
     31 H13        18.3051    8.1544   -1.0383 H           1 Y27       0.0284
     32 H14        19.2263    9.6656   -0.7174 H           1 Y27       0.0284
     33 H15        17.1783    9.4689   -4.3819 H           1 Y27       0.1997
     34 H16        17.1445    8.1038   -3.3880 H           1 Y27       0.1997
     35 H17        18.5946    8.6314   -4.0257 H           1 Y27       0.1997
     36 H18        13.0116    9.9306    1.9353 H           1 Y27       0.2307
     37 H19         9.8191    9.5895    0.7608 H           1 Y27       0.0596
     38 H20         7.8359    9.9124    2.1086 H           1 Y27       0.0771
     39 H21        10.0094   11.8343    5.0356 H           1 Y27       0.0771
     40 H22        12.0673   11.5660    3.7578 H           1 Y27       0.0596
@<TRIPOS>BOND
     1     1     2   2
     2     2     3   1
     3     2    12  am
     4     3     4   1
     5     3     8   1
     6     4     5   1
     7     5     6   1
     8     6     7   1
     9     6     9   1
    10     7     8   1
    11     9    10   1
    12     9    11   1
    13    12    13   1
    14    13    14  ar
    15    13    18  ar
    16    14    15  ar
    17    15    16  ar
    18    16    17  ar
    19    17    18  ar
    20     3    19   1
    21     4    20   1
    22     4    21   1
    23     5    22   1
    24     5    23   1
    25     6    24   1
    26     7    25   1
    27     7    26   1
    28     8    27   1
    29     8    28   1
    30     9    29   1
    31    10    30   1
    32    10    31   1
    33    10    32   1
    34    11    33   1
    35    11    34   1
    36    11    35   1
    37    12    36   1
    38    14    37   1
    39    15    38   1
    40    17    39   1
    41    18    40   1
@<TRIPOS>SUBSTRUCTURE
     1  Y27      2

