@<TRIPOS>MOLECULE
1q8t_ligand_035
    40    41
SMALL
GAST_HUCK
****
This file was generated by PARSER (from files_GN.cpp)

@<TRIPOS>ATOM
      1 O23        16.7970    9.4349    1.3150 O.2         1 Y27      -0.3826
      2 C22        16.0623    8.9867    0.4376 C.2         1 Y27       0.2105
      3 C31        16.7033    8.3159   -0.7060 C.3         1 Y27       0.0554
      4 C36        15.7411    7.7285   -1.7868 C.3         1 Y27      -0.0322
      5 C35        15.1249    8.8240   -2.7045 C.3         1 Y27      -0.0428
      6 C34        16.2114    9.6530   -3.4588 C.3         1 Y27       0.0020
      7 C33        17.1812   10.2589   -2.3876 C.3         1 Y27      -0.0428
      8 C32        17.7816    9.1944   -1.4218 C.3         1 Y27      -0.0322
      9 C41        16.9356    8.8824   -4.6248 C.3         1 Y27      -0.0244
     10 C42        15.9851    8.0912   -5.5637 C.3         1 Y27      -0.0215
     11 N43        17.6827    9.8285   -5.4720 N.4         1 Y27       0.2207
     12 N21        14.7449    9.0546    0.5836 N.am        1 Y27      -0.2247
     13 C14        14.0737    9.5917    1.6426 C.ar        1 Y27       0.0867
     14 C15        13.5086   10.8775    1.5237 C.ar        1 Y27      -0.0140
     15 C16        12.7652   11.4076    2.5945 C.ar        1 Y27      -0.0065
     16 N11        12.5814   10.6733    3.7222 N.ar        1 Y27      -0.3199
     17 C12        13.0923    9.4242    3.8632 C.ar        1 Y27      -0.0065
     18 C13        13.8587    8.8537    2.8286 C.ar        1 Y27      -0.0140
     19 H1         17.2248    7.4512   -0.2772 H           1 Y27       0.0544
     20 H2         14.9459    7.1555   -1.3031 H           1 Y27       0.0293
     21 H3         16.2987    7.0233   -2.4079 H           1 Y27       0.0293
     22 H4         14.5288    9.5162   -2.1045 H           1 Y27       0.0271
     23 H5         14.4297    8.3602   -3.4030 H           1 Y27       0.0271
     24 H6         15.6866   10.4954   -3.9259 H           1 Y27       0.0355
     25 H7         16.6294   10.9928   -1.7888 H           1 Y27       0.0271
     26 H8         18.0007   10.7964   -2.8749 H           1 Y27       0.0271
     27 H9         18.4349    8.5314   -1.9956 H           1 Y27       0.0293
     28 H10        18.4164    9.6935   -0.6857 H           1 Y27       0.0293
     29 H11        17.6628    8.1800   -4.2148 H           1 Y27       0.0850
     30 H12        16.5006    7.7813   -6.4722 H           1 Y27       0.0284
     31 H13        15.1327    8.7094   -5.8537 H           1 Y27       0.0284
     32 H14        15.6226    7.1859   -5.0713 H           1 Y27       0.0284
     33 H15        18.3721   10.3317   -4.9126 H           1 Y27       0.1997
     34 H16        17.0299   10.4900   -5.8984 H           1 Y27       0.1997
     35 H17        18.1675    9.3205   -6.2145 H           1 Y27       0.1997
     36 H18        14.1870    8.7267   -0.1399 H           1 Y27       0.2307
     37 H19        13.6399   11.4350    0.6751 H           1 Y27       0.0596
     38 H20        12.3571   12.3374    2.5358 H           1 Y27       0.0771
     39 H21        12.9137    8.8946    4.7187 H           1 Y27       0.0771
     40 H22        14.2338    7.9045    2.9274 H           1 Y27       0.0596
@<TRIPOS>BOND
     1     1     2   2
     2     2     3   1
     3     2    12  am
     4     3     4   1
     5     3     8   1
     6     4     5   1
     7     5     6   1
     8     6     7   1
     9     6     9   1
    10     7     8   1
    11     9    10   1
    12     9    11   1
    13    12    13   1
    14    13    14  ar
    15    13    18  ar
    16    14    15  ar
    17    15    16  ar
    18    16    17  ar
    19    17    18  ar
    20     3    19   1
    21     4    20   1
    22     4    21   1
    23     5    22   1
    24     5    23   1
    25     6    24   1
    26     7    25   1
    27     7    26   1
    28     8    27   1
    29     8    28   1
    30     9    29   1
    31    10    30   1
    32    10    31   1
    33    10    32   1
    34    11    33   1
    35    11    34   1
    36    11    35   1
    37    12    36   1
    38    14    37   1
    39    15    38   1
    40    17    39   1
    41    18    40   1
@<TRIPOS>SUBSTRUCTURE
     1  Y27      2

