@<TRIPOS>MOLECULE
1q8t_ligand_081
    40    41
SMALL
GAST_HUCK
****
This file was generated by PARSER (from files_GN.cpp)

@<TRIPOS>ATOM
      1 O23        12.0899   10.0358    0.0784 O.2         1 Y27      -0.3826
      2 C22        11.7001    9.1575    0.8409 C.2         1 Y27       0.2105
      3 C31        12.7059    8.6197    1.7677 C.3         1 Y27       0.0554
      4 C36        13.3465    9.7227    2.6773 C.3         1 Y27      -0.0322
      5 C35        12.4692   10.1096    3.9062 C.3         1 Y27      -0.0428
      6 C34        11.9996    8.8965    4.7794 C.3         1 Y27       0.0020
      7 C33        11.3881    7.7945    3.8581 C.3         1 Y27      -0.0428
      8 C32        12.2914    7.4033    2.6583 C.3         1 Y27      -0.0322
      9 C41        13.0082    8.3568    5.8692 C.3         1 Y27      -0.0244
     10 C42        14.5319    8.5069    5.6063 C.3         1 Y27      -0.0215
     11 N43        12.7223    8.9794    7.1725 N.4         1 Y27       0.2207
     12 N21        10.4445    8.7259    0.7888 N.am        1 Y27      -0.2247
     13 C14         9.4241    9.0878   -0.0528 C.ar        1 Y27       0.0867
     14 C15         9.5936    9.5985   -1.3633 C.ar        1 Y27      -0.0140
     15 C16         8.4717    9.9125   -2.1516 C.ar        1 Y27      -0.0065
     16 N11         7.2251    9.6917   -1.6634 N.ar        1 Y27      -0.3199
     17 C12         7.0118    9.1867   -0.4248 C.ar        1 Y27      -0.0065
     18 C13         8.1066    8.8717    0.4049 C.ar        1 Y27      -0.0140
     19 H1         13.5132    8.2469    1.1258 H           1 Y27       0.0544
     20 H2         13.5510   10.6336    2.0975 H           1 Y27       0.0293
     21 H3         14.3177    9.3587    3.0371 H           1 Y27       0.0293
     22 H4         11.5794   10.6334    3.5300 H           1 Y27       0.0271
     23 H5         13.0106   10.8257    4.5301 H           1 Y27       0.0271
     24 H6         11.1412    9.2750    5.3457 H           1 Y27       0.0355
     25 H7         10.4346    8.1645    3.4767 H           1 Y27       0.0271
     26 H8         11.1593    6.8998    4.4422 H           1 Y27       0.0271
     27 H9         13.1925    6.9249    3.0486 H           1 Y27       0.0293
     28 H10        11.7798    6.6557    2.0492 H           1 Y27       0.0293
     29 H11        12.8343    7.2864    6.0220 H           1 Y27       0.0850
     30 H12        15.1029    8.0603    6.4267 H           1 Y27       0.0284
     31 H13        14.8095    9.5633    5.5441 H           1 Y27       0.0284
     32 H14        14.8150    8.0039    4.6746 H           1 Y27       0.0284
     33 H15        11.8494    8.5909    7.5284 H           1 Y27       0.1997
     34 H16        12.6256    9.9870    7.0655 H           1 Y27       0.1997
     35 H17        13.4743    8.7650    7.8301 H           1 Y27       0.1997
     36 H18        10.1903    8.0888    1.4668 H           1 Y27       0.2307
     37 H19        10.5202    9.7160   -1.7690 H           1 Y27       0.0596
     38 H20         8.5905   10.2874   -3.0965 H           1 Y27       0.0771
     39 H21         6.0553    9.0265   -0.1017 H           1 Y27       0.0771
     40 H22         7.9302    8.4932    1.3402 H           1 Y27       0.0596
@<TRIPOS>BOND
     1     1     2   2
     2     2     3   1
     3     2    12  am
     4     3     4   1
     5     3     8   1
     6     4     5   1
     7     5     6   1
     8     6     7   1
     9     6     9   1
    10     7     8   1
    11     9    10   1
    12     9    11   1
    13    12    13   1
    14    13    14  ar
    15    13    18  ar
    16    14    15  ar
    17    15    16  ar
    18    16    17  ar
    19    17    18  ar
    20     3    19   1
    21     4    20   1
    22     4    21   1
    23     5    22   1
    24     5    23   1
    25     6    24   1
    26     7    25   1
    27     7    26   1
    28     8    27   1
    29     8    28   1
    30     9    29   1
    31    10    30   1
    32    10    31   1
    33    10    32   1
    34    11    33   1
    35    11    34   1
    36    11    35   1
    37    12    36   1
    38    14    37   1
    39    15    38   1
    40    17    39   1
    41    18    40   1
@<TRIPOS>SUBSTRUCTURE
     1  Y27      2

