@<TRIPOS>MOLECULE
1q8t_ligand_042
    40    41
SMALL
GAST_HUCK
****
This file was generated by PARSER (from files_GN.cpp)

@<TRIPOS>ATOM
      1 O23         9.9923   10.8043    3.8379 O.2         1 Y27      -0.3826
      2 C22         9.2031    9.9087    3.5620 C.2         1 Y27       0.2105
      3 C31         8.3314    9.4175    4.6405 C.3         1 Y27       0.0554
      4 C36         7.4546   10.5582    5.2514 C.3         1 Y27      -0.0322
      5 C35         6.2459   10.9061    4.3443 C.3         1 Y27      -0.0428
      6 C34         5.3007    9.6841    4.1120 C.3         1 Y27       0.0020
      7 C33         6.1430    8.5279    3.4815 C.3         1 Y27      -0.0428
      8 C32         7.4234    8.1842    4.3040 C.3         1 Y27      -0.0322
      9 C41         4.4663    9.2056    5.3582 C.3         1 Y27      -0.0244
     10 C42         3.8564   10.3261    6.2401 C.3         1 Y27      -0.0215
     11 N43         3.3680    8.3395    4.8946 N.4         1 Y27       0.2207
     12 N21         9.1330    9.4186    2.3250 N.am        1 Y27      -0.2247
     13 C14         9.8531    9.7070    1.2036 C.ar        1 Y27       0.0867
     14 C15        11.1736   10.2151    1.1990 C.ar        1 Y27      -0.0140
     15 C16        11.8230   10.4456   -0.0288 C.ar        1 Y27      -0.0065
     16 N11        11.1801   10.1746   -1.1924 N.ar        1 Y27      -0.3199
     17 C12         9.9279    9.6600   -1.2335 C.ar        1 Y27      -0.0065
     18 C13         9.2402    9.4087   -0.0355 C.ar        1 Y27      -0.0140
     19 H1          9.0103    9.0761    5.4297 H           1 Y27       0.0544
     20 H2          8.0479   11.4617    5.4128 H           1 Y27       0.0293
     21 H3          7.0917   10.2437    6.2316 H           1 Y27       0.0293
     22 H4          6.6208   11.2444    3.3741 H           1 Y27       0.0271
     23 H5          5.6939   11.7448    4.7737 H           1 Y27       0.0271
     24 H6          4.5747   10.0092    3.3553 H           1 Y27       0.0355
     25 H7          6.4203    8.8156    2.4660 H           1 Y27       0.0271
     26 H8          5.5314    7.6323    3.3805 H           1 Y27       0.0271
     27 H9          7.1196    7.7214    5.2428 H           1 Y27       0.0293
     28 H10         8.0043    7.4276    3.7687 H           1 Y27       0.0293
     29 H11         5.0957    8.6046    6.0157 H           1 Y27       0.0850
     30 H12         3.1781    9.8959    6.9805 H           1 Y27       0.0284
     31 H13         3.3028   11.0423    5.6308 H           1 Y27       0.0284
     32 H14         4.6446   10.8492    6.7832 H           1 Y27       0.0284
     33 H15         3.7422    7.5124    4.4297 H           1 Y27       0.1997
     34 H16         2.7835    8.8520    4.2296 H           1 Y27       0.1997
     35 H17         2.8077    8.0449    5.6934 H           1 Y27       0.1997
     36 H18         8.4322    8.7711    2.1829 H           1 Y27       0.2307
     37 H19        11.6805   10.3927    2.0699 H           1 Y27       0.0596
     38 H20        12.7752   10.8172   -0.0496 H           1 Y27       0.0771
     39 H21         9.4898    9.4666   -2.1346 H           1 Y27       0.0771
     40 H22         8.2930    9.0226   -0.0740 H           1 Y27       0.0596
@<TRIPOS>BOND
     1     1     2   2
     2     2     3   1
     3     2    12  am
     4     3     4   1
     5     3     8   1
     6     4     5   1
     7     5     6   1
     8     6     7   1
     9     6     9   1
    10     7     8   1
    11     9    10   1
    12     9    11   1
    13    12    13   1
    14    13    14  ar
    15    13    18  ar
    16    14    15  ar
    17    15    16  ar
    18    16    17  ar
    19    17    18  ar
    20     3    19   1
    21     4    20   1
    22     4    21   1
    23     5    22   1
    24     5    23   1
    25     6    24   1
    26     7    25   1
    27     7    26   1
    28     8    27   1
    29     8    28   1
    30     9    29   1
    31    10    30   1
    32    10    31   1
    33    10    32   1
    34    11    33   1
    35    11    34   1
    36    11    35   1
    37    12    36   1
    38    14    37   1
    39    15    38   1
    40    17    39   1
    41    18    40   1
@<TRIPOS>SUBSTRUCTURE
     1  Y27      2

