@<TRIPOS>MOLECULE
1q8t_ligand_001
    40    41
SMALL
GAST_HUCK
****
This file was generated by PARSER (from files_GN.cpp)

@<TRIPOS>ATOM
      1 O23        11.3328   10.7980   -1.0367 O.2         1 Y27      -0.3826
      2 C22        11.2834   11.0456    0.1589 C.2         1 Y27       0.2105
      3 C31        10.2234   10.4161    0.9635 C.3         1 Y27       0.0554
      4 C36         9.9525    8.9329    0.5490 C.3         1 Y27      -0.0322
      5 C35        11.1284    8.0142    0.9699 C.3         1 Y27      -0.0428
      6 C34        11.3794    8.0020    2.5115 C.3         1 Y27       0.0020
      7 C33        11.5317    9.4750    3.0262 C.3         1 Y27      -0.0428
      8 C32        10.4212   10.4433    2.5203 C.3         1 Y27      -0.0322
      9 C41        10.4463    7.0612    3.3712 C.3         1 Y27      -0.0244
     10 C42         9.1763    7.6480    4.0407 C.3         1 Y27      -0.0215
     11 N43        10.0190    5.8710    2.6098 N.4         1 Y27       0.2207
     12 N21        12.0691   12.0015    0.6570 N.am        1 Y27      -0.2247
     13 C14        13.0423   12.6741   -0.0136 C.ar        1 Y27       0.0867
     14 C15        12.8978   14.0653   -0.1935 C.ar        1 Y27      -0.0140
     15 C16        13.9049   14.7747   -0.8742 C.ar        1 Y27      -0.0065
     16 N11        15.0240   14.1314   -1.2929 N.ar        1 Y27      -0.3199
     17 C12        15.2046   12.7963   -1.1195 C.ar        1 Y27      -0.0065
     18 C13        14.2102   12.0342   -0.4821 C.ar        1 Y27      -0.0140
     19 H1          9.3066   10.9726    0.7452 H           1 Y27       0.0544
     20 H2          9.7978    8.8512   -0.5317 H           1 Y27       0.0293
     21 H3          9.0324    8.5749    1.0160 H           1 Y27       0.0293
     22 H4         12.0362    8.3716    0.4760 H           1 Y27       0.0271
     23 H5         10.9549    7.0095    0.5852 H           1 Y27       0.0271
     24 H6         12.3727    7.5543    2.6212 H           1 Y27       0.0355
     25 H7         12.4996    9.8686    2.6975 H           1 Y27       0.0271
     26 H8         11.5501    9.4870    4.1192 H           1 Y27       0.0271
     27 H9          9.4735   10.1679    2.9845 H           1 Y27       0.0293
     28 H10        10.6370   11.4582    2.8698 H           1 Y27       0.0293
     29 H11        11.0544    6.6818    4.1992 H           1 Y27       0.0850
     30 H12         8.7043    6.8886    4.6719 H           1 Y27       0.0284
     31 H13         8.4561    7.9760    3.2923 H           1 Y27       0.0284
     32 H14         9.4312    8.4915    4.6827 H           1 Y27       0.0284
     33 H15        10.8261    5.4689    2.1198 H           1 Y27       0.1997
     34 H16         9.2990    6.1368    1.9273 H           1 Y27       0.1997
     35 H17         9.6332    5.1741    3.2514 H           1 Y27       0.1997
     36 H18        11.8657   12.3177    1.5450 H           1 Y27       0.2307
     37 H19        12.0630   14.5546    0.1369 H           1 Y27       0.0596
     38 H20        13.7924   15.7741   -1.0577 H           1 Y27       0.0771
     39 H21        16.0630   12.3583   -1.4587 H           1 Y27       0.0771
     40 H22        14.3492   11.0296   -0.3412 H           1 Y27       0.0596
@<TRIPOS>BOND
     1     1     2   2
     2     2     3   1
     3     2    12  am
     4     3     4   1
     5     3     8   1
     6     4     5   1
     7     5     6   1
     8     6     7   1
     9     6     9   1
    10     7     8   1
    11     9    10   1
    12     9    11   1
    13    12    13   1
    14    13    14  ar
    15    13    18  ar
    16    14    15  ar
    17    15    16  ar
    18    16    17  ar
    19    17    18  ar
    20     3    19   1
    21     4    20   1
    22     4    21   1
    23     5    22   1
    24     5    23   1
    25     6    24   1
    26     7    25   1
    27     7    26   1
    28     8    27   1
    29     8    28   1
    30     9    29   1
    31    10    30   1
    32    10    31   1
    33    10    32   1
    34    11    33   1
    35    11    34   1
    36    11    35   1
    37    12    36   1
    38    14    37   1
    39    15    38   1
    40    17    39   1
    41    18    40   1
@<TRIPOS>SUBSTRUCTURE
     1  Y27      2

