@<TRIPOS>MOLECULE
1q8t_ligand_007
    40    41
SMALL
GAST_HUCK
****
This file was generated by PARSER (from files_GN.cpp)

@<TRIPOS>ATOM
      1 O23        16.5583    6.5100   -0.3179 O.2         1 Y27      -0.3826
      2 C22        16.1534    7.5395   -0.8579 C.2         1 Y27       0.2105
      3 C31        16.5016    7.7739   -2.2536 C.3         1 Y27       0.0554
      4 C36        15.2306    7.8723   -3.1535 C.3         1 Y27      -0.0322
      5 C35        15.5917    8.1048   -4.6453 C.3         1 Y27      -0.0428
      6 C34        16.4944    9.3647   -4.8609 C.3         1 Y27       0.0020
      7 C33        17.7495    9.2745   -3.9348 C.3         1 Y27      -0.0428
      8 C32        17.4000    9.0339   -2.4416 C.3         1 Y27      -0.0322
      9 C41        16.8297    9.5681   -6.3893 C.3         1 Y27      -0.0244
     10 C42        15.8052   10.4838   -7.1133 C.3         1 Y27      -0.0215
     11 N43        18.1742   10.1253   -6.6463 N.4         1 Y27       0.2207
     12 N21        15.3687    8.3854   -0.1969 N.am        1 Y27      -0.2247
     13 C14        14.8729    8.1758    1.0478 C.ar        1 Y27       0.0867
     14 C15        13.8305    7.2432    1.2382 C.ar        1 Y27      -0.0140
     15 C16        13.3155    7.0483    2.5346 C.ar        1 Y27      -0.0065
     16 N11        13.8142    7.7595    3.5764 N.ar        1 Y27      -0.3199
     17 C12        14.8104    8.6705    3.4254 C.ar        1 Y27      -0.0065
     18 C13        15.3640    8.9046    2.1520 C.ar        1 Y27      -0.0140
     19 H1         17.0812    6.9151   -2.6167 H           1 Y27       0.0544
     20 H2         14.5984    8.6955   -2.8215 H           1 Y27       0.0293
     21 H3         14.6543    6.9467   -3.0724 H           1 Y27       0.0293
     22 H4         14.6606    8.2180   -5.2074 H           1 Y27       0.0271
     23 H5         16.0996    7.2135   -5.0276 H           1 Y27       0.0271
     24 H6         15.9299   10.2339   -4.5186 H           1 Y27       0.0355
     25 H7         18.3080   10.2122   -3.9929 H           1 Y27       0.0271
     26 H8         18.4070    8.4716   -4.2757 H           1 Y27       0.0271
     27 H9         18.3316    8.8978   -1.8790 H           1 Y27       0.0293
     28 H10        16.8975    9.9180   -2.0394 H           1 Y27       0.0293
     29 H11        16.8149    8.6035   -6.9014 H           1 Y27       0.0850
     30 H12        16.0042   10.5103   -8.1895 H           1 Y27       0.0284
     31 H13        15.8585   11.5043   -6.7314 H           1 Y27       0.0284
     32 H14        14.7897   10.1174   -6.9659 H           1 Y27       0.0284
     33 H15        18.9066    9.5526   -6.2141 H           1 Y27       0.1997
     34 H16        18.2373   11.0588   -6.2546 H           1 Y27       0.1997
     35 H17        18.3446   10.1791   -7.6489 H           1 Y27       0.1997
     36 H18        15.0813    9.1868   -0.6605 H           1 Y27       0.2307
     37 H19        13.4553    6.7165    0.4476 H           1 Y27       0.0596
     38 H20        12.5654    6.3703    2.6859 H           1 Y27       0.0771
     39 H21        15.1498    9.1777    4.2439 H           1 Y27       0.0771
     40 H22        16.1221    9.5837    2.0431 H           1 Y27       0.0596
@<TRIPOS>BOND
     1     1     2   2
     2     2     3   1
     3     2    12  am
     4     3     4   1
     5     3     8   1
     6     4     5   1
     7     5     6   1
     8     6     7   1
     9     6     9   1
    10     7     8   1
    11     9    10   1
    12     9    11   1
    13    12    13   1
    14    13    14  ar
    15    13    18  ar
    16    14    15  ar
    17    15    16  ar
    18    16    17  ar
    19    17    18  ar
    20     3    19   1
    21     4    20   1
    22     4    21   1
    23     5    22   1
    24     5    23   1
    25     6    24   1
    26     7    25   1
    27     7    26   1
    28     8    27   1
    29     8    28   1
    30     9    29   1
    31    10    30   1
    32    10    31   1
    33    10    32   1
    34    11    33   1
    35    11    34   1
    36    11    35   1
    37    12    36   1
    38    14    37   1
    39    15    38   1
    40    17    39   1
    41    18    40   1
@<TRIPOS>SUBSTRUCTURE
     1  Y27      2

