@<TRIPOS>MOLECULE
1q8t_ligand_003
    40    41
SMALL
GAST_HUCK
****
This file was generated by PARSER (from files_GN.cpp)

@<TRIPOS>ATOM
      1 O23        16.6670    6.6196   -0.5887 O.2         1 Y27      -0.3826
      2 C22        15.8888    7.5453   -0.4054 C.2         1 Y27       0.2105
      3 C31        15.2517    7.7553    0.9013 C.3         1 Y27       0.0554
      4 C36        15.3365    6.5615    1.9054 C.3         1 Y27      -0.0322
      5 C35        16.7167    6.4556    2.6022 C.3         1 Y27      -0.0428
      6 C34        17.1642    7.7570    3.3354 C.3         1 Y27       0.0020
      7 C33        17.0467    8.9831    2.3716 C.3         1 Y27      -0.0428
      8 C32        15.7068    9.0827    1.5865 C.3         1 Y27      -0.0322
      9 C41        16.5339    7.9541    4.7647 C.3         1 Y27      -0.0244
     10 C42        17.4872    8.6893    5.7469 C.3         1 Y27      -0.0215
     11 N43        15.2497    8.6730    4.7649 N.4         1 Y27       0.2207
     12 N21        15.5247    8.3351   -1.4096 N.am        1 Y27      -0.2247
     13 C14        15.8317    8.1742   -2.7260 C.ar        1 Y27       0.0867
     14 C15        15.0963    7.2673   -3.5160 C.ar        1 Y27      -0.0140
     15 C16        15.3344    7.2176   -4.9048 C.ar        1 Y27      -0.0065
     16 N11        16.2635    8.0334   -5.4601 N.ar        1 Y27      -0.3199
     17 C12        16.9887    8.9208   -4.7251 C.ar        1 Y27      -0.0065
     18 C13        16.7793    9.0170   -3.3370 C.ar        1 Y27      -0.0140
     19 H1         14.1806    7.8644    0.6892 H           1 Y27       0.0544
     20 H2         15.1199    5.6247    1.3839 H           1 Y27       0.0293
     21 H3         14.5630    6.6718    2.6698 H           1 Y27       0.0293
     22 H4         17.4697    6.2272    1.8446 H           1 Y27       0.0271
     23 H5         16.7045    5.6101    3.2936 H           1 Y27       0.0271
     24 H6         18.2404    7.6104    3.4983 H           1 Y27       0.0355
     25 H7         17.8577    8.9274    1.6388 H           1 Y27       0.0271
     26 H8         17.1918    9.9106    2.9330 H           1 Y27       0.0271
     27 H9         14.9201    9.3975    2.2704 H           1 Y27       0.0293
     28 H10        15.8047    9.8809    0.8474 H           1 Y27       0.0293
     29 H11        16.3366    6.9745    5.2078 H           1 Y27       0.0850
     30 H12        17.0278    8.7542    6.7350 H           1 Y27       0.0284
     31 H13        17.7048    9.7001    5.3955 H           1 Y27       0.0284
     32 H14        18.4268    8.1438    5.8468 H           1 Y27       0.0284
     33 H15        14.5800    8.1992    4.1551 H           1 Y27       0.1997
     34 H16        15.3888    9.6348    4.4443 H           1 Y27       0.1997
     35 H17        14.8752    8.6898    5.7218 H           1 Y27       0.1997
     36 H18        14.9050    9.0528   -1.2019 H           1 Y27       0.2307
     37 H19        14.3781    6.6719   -3.0999 H           1 Y27       0.0596
     38 H20        14.8052    6.5779   -5.5003 H           1 Y27       0.0771
     39 H21        17.6725    9.5191   -5.1939 H           1 Y27       0.0771
     40 H22        17.3042    9.7058   -2.7907 H           1 Y27       0.0596
@<TRIPOS>BOND
     1     1     2   2
     2     2     3   1
     3     2    12  am
     4     3     4   1
     5     3     8   1
     6     4     5   1
     7     5     6   1
     8     6     7   1
     9     6     9   1
    10     7     8   1
    11     9    10   1
    12     9    11   1
    13    12    13   1
    14    13    14  ar
    15    13    18  ar
    16    14    15  ar
    17    15    16  ar
    18    16    17  ar
    19    17    18  ar
    20     3    19   1
    21     4    20   1
    22     4    21   1
    23     5    22   1
    24     5    23   1
    25     6    24   1
    26     7    25   1
    27     7    26   1
    28     8    27   1
    29     8    28   1
    30     9    29   1
    31    10    30   1
    32    10    31   1
    33    10    32   1
    34    11    33   1
    35    11    34   1
    36    11    35   1
    37    12    36   1
    38    14    37   1
    39    15    38   1
    40    17    39   1
    41    18    40   1
@<TRIPOS>SUBSTRUCTURE
     1  Y27      2

