@<TRIPOS>MOLECULE
1q8t_ligand_083
    40    41
SMALL
GAST_HUCK
****
This file was generated by PARSER (from files_GN.cpp)

@<TRIPOS>ATOM
      1 O23        16.7064    9.7837    6.3307 O.2         1 Y27      -0.3826
      2 C22        17.6242   10.0634    5.5727 C.2         1 Y27       0.2105
      3 C31        18.4413   11.2438    5.8577 C.3         1 Y27       0.0554
      4 C36        19.8870   10.8358    6.2598 C.3         1 Y27      -0.0322
      5 C35        20.7812   12.0639    6.5801 C.3         1 Y27      -0.0428
      6 C34        20.8287   13.1062    5.4140 C.3         1 Y27       0.0020
      7 C33        19.3710   13.4882    4.9939 C.3         1 Y27      -0.0428
      8 C32        18.4796   12.2584    4.6775 C.3         1 Y27      -0.0322
      9 C41        21.6826   14.3766    5.7700 C.3         1 Y27      -0.0244
     10 C42        23.1513   14.0868    6.1784 C.3         1 Y27      -0.0215
     11 N43        21.7303   15.3121    4.6299 N.4         1 Y27       0.2207
     12 N21        17.8805    9.3161    4.5052 N.am        1 Y27      -0.2247
     13 C14        17.3001    8.1371    4.1472 C.ar        1 Y27       0.0867
     14 C15        17.1258    7.0715    5.0607 C.ar        1 Y27      -0.0140
     15 C16        16.6047    5.8469    4.6074 C.ar        1 Y27      -0.0065
     16 N11        16.2623    5.6959    3.2983 N.ar        1 Y27      -0.3199
     17 C12        16.4224    6.6942    2.3922 C.ar        1 Y27      -0.0065
     18 C13        16.9634    7.9324    2.7916 C.ar        1 Y27      -0.0140
     19 H1         18.0095   11.7723    6.7187 H           1 Y27       0.0544
     20 H2         20.3521   10.2676    5.4509 H           1 Y27       0.0293
     21 H3         19.8543   10.1918    7.1446 H           1 Y27       0.0293
     22 H4         21.7866   11.6890    6.7851 H           1 Y27       0.0271
     23 H5         20.4118   12.5505    7.4882 H           1 Y27       0.0271
     24 H6         21.3071   12.6176    4.5574 H           1 Y27       0.0355
     25 H7         19.3934   14.1149    4.0980 H           1 Y27       0.0271
     26 H8         18.9005   14.0692    5.7927 H           1 Y27       0.0271
     27 H9         17.4672   12.6098    4.4663 H           1 Y27       0.0293
     28 H10        18.8609   11.7807    3.7713 H           1 Y27       0.0293
     29 H11        21.2033   14.9026    6.6007 H           1 Y27       0.0850
     30 H12        23.6984   15.0226    6.3142 H           1 Y27       0.0284
     31 H13        23.6552   13.4978    5.4100 H           1 Y27       0.0284
     32 H14        23.1931   13.5450    7.1255 H           1 Y27       0.0284
     33 H15        20.7915   15.6482    4.4156 H           1 Y27       0.1997
     34 H16        22.1175   14.8366    3.8128 H           1 Y27       0.1997
     35 H17        22.3207   16.1112    4.8679 H           1 Y27       0.1997
     36 H18        18.5802    9.6240    3.9102 H           1 Y27       0.2307
     37 H19        17.4088    7.1726    6.0372 H           1 Y27       0.0596
     38 H20        16.4853    5.0679    5.2546 H           1 Y27       0.0771
     39 H21        16.1457    6.5410    1.4185 H           1 Y27       0.0771
     40 H22        17.0856    8.6801    2.1031 H           1 Y27       0.0596
@<TRIPOS>BOND
     1     1     2   2
     2     2     3   1
     3     2    12  am
     4     3     4   1
     5     3     8   1
     6     4     5   1
     7     5     6   1
     8     6     7   1
     9     6     9   1
    10     7     8   1
    11     9    10   1
    12     9    11   1
    13    12    13   1
    14    13    14  ar
    15    13    18  ar
    16    14    15  ar
    17    15    16  ar
    18    16    17  ar
    19    17    18  ar
    20     3    19   1
    21     4    20   1
    22     4    21   1
    23     5    22   1
    24     5    23   1
    25     6    24   1
    26     7    25   1
    27     7    26   1
    28     8    27   1
    29     8    28   1
    30     9    29   1
    31    10    30   1
    32    10    31   1
    33    10    32   1
    34    11    33   1
    35    11    34   1
    36    11    35   1
    37    12    36   1
    38    14    37   1
    39    15    38   1
    40    17    39   1
    41    18    40   1
@<TRIPOS>SUBSTRUCTURE
     1  Y27      2

