@<TRIPOS>MOLECULE
1q8t_ligand_008
    40    41
SMALL
GAST_HUCK
****
This file was generated by PARSER (from files_GN.cpp)

@<TRIPOS>ATOM
      1 O23        11.2163    8.9345    4.3390 O.2         1 Y27      -0.3826
      2 C22        11.1733    7.7144    4.4719 C.2         1 Y27       0.2105
      3 C31        12.3992    6.9599    4.7533 C.3         1 Y27       0.0554
      4 C36        13.0062    6.3441    3.4550 C.3         1 Y27      -0.0322
      5 C35        13.7901    7.3743    2.6054 C.3         1 Y27      -0.0428
      6 C34        14.9323    8.1176    3.3859 C.3         1 Y27       0.0020
      7 C33        14.3534    8.7169    4.7120 C.3         1 Y27      -0.0428
      8 C32        13.4813    7.7444    5.5574 C.3         1 Y27      -0.0322
      9 C41        16.3197    7.3807    3.5230 C.3         1 Y27      -0.0244
     10 C42        16.5816    6.5185    4.7859 C.3         1 Y27      -0.0215
     11 N43        16.6372    6.5477    2.3417 N.4         1 Y27       0.2207
     12 N21        10.0265    7.0586    4.3511 N.am        1 Y27      -0.2247
     13 C14         8.8073    7.6373    4.1392 C.ar        1 Y27       0.0867
     14 C15         8.3419    7.8640    2.8319 C.ar        1 Y27      -0.0140
     15 C16         7.0718    8.4543    2.6479 C.ar        1 Y27      -0.0065
     16 N11         6.3312    8.8039    3.7263 N.ar        1 Y27      -0.3199
     17 C12         6.7542    8.6047    5.0025 C.ar        1 Y27      -0.0065
     18 C13         8.0049    8.0024    5.2361 C.ar        1 Y27      -0.0140
     19 H1         12.1119    6.1245    5.3991 H           1 Y27       0.0544
     20 H2         12.2119    5.9059    2.8385 H           1 Y27       0.0293
     21 H3         13.6753    5.5301    3.7208 H           1 Y27       0.0293
     22 H4         13.0796    8.1216    2.2368 H           1 Y27       0.0271
     23 H5         14.1841    6.8765    1.7195 H           1 Y27       0.0271
     24 H6         15.1626    8.9899    2.7572 H           1 Y27       0.0355
     25 H7         13.7412    9.5898    4.4616 H           1 Y27       0.0271
     26 H8         15.1675    9.0926    5.3377 H           1 Y27       0.0271
     27 H9         14.1321    7.0110    6.0358 H           1 Y27       0.0293
     28 H10        13.0011    8.3122    6.3591 H           1 Y27       0.0293
     29 H11        17.0950    8.1553    3.5391 H           1 Y27       0.0850
     30 H12        17.5705    6.0596    4.7422 H           1 Y27       0.0284
     31 H13        15.8456    5.7225    4.8796 H           1 Y27       0.0284
     32 H14        16.5574    7.1402    5.6812 H           1 Y27       0.0284
     33 H15        16.6193    7.1223    1.4967 H           1 Y27       0.1997
     34 H16        15.9500    5.7987    2.2597 H           1 Y27       0.1997
     35 H17        17.5651    6.1262    2.4478 H           1 Y27       0.1997
     36 H18        10.0487    6.0975    4.4604 H           1 Y27       0.2307
     37 H19         8.9085    7.6103    2.0167 H           1 Y27       0.0596
     38 H20         6.7134    8.6266    1.7077 H           1 Y27       0.0771
     39 H21         6.1624    8.8944    5.7804 H           1 Y27       0.0771
     40 H22         8.3241    7.8533    6.1991 H           1 Y27       0.0596
@<TRIPOS>BOND
     1     1     2   2
     2     2     3   1
     3     2    12  am
     4     3     4   1
     5     3     8   1
     6     4     5   1
     7     5     6   1
     8     6     7   1
     9     6     9   1
    10     7     8   1
    11     9    10   1
    12     9    11   1
    13    12    13   1
    14    13    14  ar
    15    13    18  ar
    16    14    15  ar
    17    15    16  ar
    18    16    17  ar
    19    17    18  ar
    20     3    19   1
    21     4    20   1
    22     4    21   1
    23     5    22   1
    24     5    23   1
    25     6    24   1
    26     7    25   1
    27     7    26   1
    28     8    27   1
    29     8    28   1
    30     9    29   1
    31    10    30   1
    32    10    31   1
    33    10    32   1
    34    11    33   1
    35    11    34   1
    36    11    35   1
    37    12    36   1
    38    14    37   1
    39    15    38   1
    40    17    39   1
    41    18    40   1
@<TRIPOS>SUBSTRUCTURE
     1  Y27      2

