@<TRIPOS>MOLECULE
1q8t_ligand_028
    40    41
SMALL
GAST_HUCK
****
This file was generated by PARSER (from files_GN.cpp)

@<TRIPOS>ATOM
      1 O23        15.6539   11.3389   -1.3824 O.2         1 Y27      -0.3826
      2 C22        14.6796   10.6285   -1.6052 C.2         1 Y27       0.2105
      3 C31        13.5882   10.6138   -0.6304 C.3         1 Y27       0.0554
      4 C36        13.9119    9.6993    0.5907 C.3         1 Y27      -0.0322
      5 C35        12.7299    9.6627    1.5984 C.3         1 Y27      -0.0428
      6 C34        12.3139   11.0898    2.0845 C.3         1 Y27       0.0020
      7 C33        12.0375   12.0257    0.8663 C.3         1 Y27      -0.0428
      8 C32        13.2135   12.0451   -0.1434 C.3         1 Y27      -0.0322
      9 C41        11.1367   11.1000    3.1217 C.3         1 Y27      -0.0244
     10 C42         9.8251   10.4045    2.6630 C.3         1 Y27      -0.0215
     11 N43        11.5636   10.4913    4.3954 N.4         1 Y27       0.2207
     12 N21        14.6503    9.7940   -2.6449 N.am        1 Y27      -0.2247
     13 C14        15.5568    9.5932   -3.6445 C.ar        1 Y27       0.0867
     14 C15        15.1637    8.7220   -4.6858 C.ar        1 Y27      -0.0140
     15 C16        16.0568    8.4482   -5.7383 C.ar        1 Y27      -0.0065
     16 N11        17.2794    9.0361   -5.7549 N.ar        1 Y27      -0.3199
     17 C12        17.6890    9.8891   -4.7861 C.ar        1 Y27      -0.0065
     18 C13        16.8336   10.2028   -3.7138 C.ar        1 Y27      -0.0140
     19 H1         12.6935   10.2005   -1.1123 H           1 Y27       0.0544
     20 H2         14.8075   10.0518    1.1057 H           1 Y27       0.0293
     21 H3         14.1030    8.6769    0.2497 H           1 Y27       0.0293
     22 H4         13.0171    9.0562    2.4609 H           1 Y27       0.0271
     23 H5         11.8816    9.1808    1.1105 H           1 Y27       0.0271
     24 H6         13.1743   11.5160    2.6071 H           1 Y27       0.0355
     25 H7         11.8717   13.0499    1.2215 H           1 Y27       0.0271
     26 H8         11.1303   11.7078    0.3434 H           1 Y27       0.0271
     27 H9         12.9354   12.6608   -1.0036 H           1 Y27       0.0293
     28 H10        14.0770   12.5113    0.3345 H           1 Y27       0.0293
     29 H11        10.8933   12.1405    3.3563 H           1 Y27       0.0850
     30 H12         9.0337   10.5794    3.3945 H           1 Y27       0.0284
     31 H13         9.9672    9.3262    2.5676 H           1 Y27       0.0284
     32 H14         9.4943   10.8019    1.7006 H           1 Y27       0.0284
     33 H15        12.3631   11.0084    4.7711 H           1 Y27       0.1997
     34 H16        11.8326    9.5164    4.2462 H           1 Y27       0.1997
     35 H17        10.7950   10.5312    5.0694 H           1 Y27       0.1997
     36 H18        13.9318    9.1465   -2.6300 H           1 Y27       0.2307
     37 H19        14.2429    8.2748   -4.6769 H           1 Y27       0.0596
     38 H20        15.7884    7.8138   -6.4913 H           1 Y27       0.0771
     39 H21        18.6120   10.3167   -4.8452 H           1 Y27       0.0771
     40 H22        17.1417   10.8812   -3.0151 H           1 Y27       0.0596
@<TRIPOS>BOND
     1     1     2   2
     2     2     3   1
     3     2    12  am
     4     3     4   1
     5     3     8   1
     6     4     5   1
     7     5     6   1
     8     6     7   1
     9     6     9   1
    10     7     8   1
    11     9    10   1
    12     9    11   1
    13    12    13   1
    14    13    14  ar
    15    13    18  ar
    16    14    15  ar
    17    15    16  ar
    18    16    17  ar
    19    17    18  ar
    20     3    19   1
    21     4    20   1
    22     4    21   1
    23     5    22   1
    24     5    23   1
    25     6    24   1
    26     7    25   1
    27     7    26   1
    28     8    27   1
    29     8    28   1
    30     9    29   1
    31    10    30   1
    32    10    31   1
    33    10    32   1
    34    11    33   1
    35    11    34   1
    36    11    35   1
    37    12    36   1
    38    14    37   1
    39    15    38   1
    40    17    39   1
    41    18    40   1
@<TRIPOS>SUBSTRUCTURE
     1  Y27      2

