@<TRIPOS>MOLECULE
1q8t_ligand_000
    40    41
SMALL
GAST_HUCK
****
This file was generated by PARSER (from files_GN.cpp)

@<TRIPOS>ATOM
      1 O23        14.6479   10.2128    6.8657 O.2         1 Y27      -0.3826
      2 C22        14.8092    9.4179    5.9526 C.2         1 Y27       0.2105
      3 C31        13.7213    9.2622    4.9861 C.3         1 Y27       0.0554
      4 C36        14.1248    8.5567    3.6497 C.3         1 Y27      -0.0322
      5 C35        12.9377    8.4762    2.6663 C.3         1 Y27      -0.0428
      6 C34        11.7067    7.7240    3.2722 C.3         1 Y27       0.0020
      7 C33        11.3159    8.3862    4.6321 C.3         1 Y27      -0.0428
      8 C32        12.5042    8.5304    5.6253 C.3         1 Y27      -0.0322
      9 C41        10.4619    7.5411    2.3127 C.3         1 Y27      -0.0244
     10 C42        10.4989    8.2410    0.9205 C.3         1 Y27      -0.0215
     11 N43        10.1986    6.1101    2.0748 N.4         1 Y27       0.2207
     12 N21        15.9114    8.6766    5.8527 N.am        1 Y27      -0.2247
     13 C14        17.0638    8.6620    6.5699 C.ar        1 Y27       0.0867
     14 C15        18.2072    8.2220    5.8734 C.ar        1 Y27      -0.0140
     15 C16        19.4487    8.1588    6.5280 C.ar        1 Y27      -0.0065
     16 N11        19.5326    8.5025    7.8381 N.ar        1 Y27      -0.3199
     17 C12        18.4549    8.9226    8.5505 C.ar        1 Y27      -0.0065
     18 C13        17.1975    9.0087    7.9369 C.ar        1 Y27      -0.0140
     19 H1         13.3992   10.2698    4.7054 H           1 Y27       0.0544
     20 H2         14.4798    7.5335    3.8420 H           1 Y27       0.0293
     21 H3         14.9480    9.1036    3.1748 H           1 Y27       0.0293
     22 H4         13.2838    7.9490    1.7711 H           1 Y27       0.0271
     23 H5         12.6545    9.4905    2.3700 H           1 Y27       0.0271
     24 H6         12.0736    6.7257    3.5199 H           1 Y27       0.0355
     25 H7         10.5397    7.7828    5.1043 H           1 Y27       0.0271
     26 H8         10.8935    9.3811    4.4446 H           1 Y27       0.0271
     27 H9         12.1669    9.0969    6.5006 H           1 Y27       0.0293
     28 H10        12.8092    7.5378    5.9722 H           1 Y27       0.0293
     29 H11         9.5651    7.9258    2.8004 H           1 Y27       0.0850
     30 H12         9.5912    8.0261    0.3558 H           1 Y27       0.0284
     31 H13        11.3566    7.9001    0.3323 H           1 Y27       0.0284
     32 H14        10.5649    9.3274    1.0450 H           1 Y27       0.0284
     33 H15        10.0951    5.6240    2.9661 H           1 Y27       0.1997
     34 H16        10.9882    5.6939    1.5704 H           1 Y27       0.1997
     35 H17         9.3472    6.0033    1.5193 H           1 Y27       0.1997
     36 H18        15.9270    8.0822    5.0940 H           1 Y27       0.2307
     37 H19        18.1512    7.9460    4.8862 H           1 Y27       0.0596
     38 H20        20.2824    7.8456    6.0270 H           1 Y27       0.0771
     39 H21        18.5680    9.1563    9.5381 H           1 Y27       0.0771
     40 H22        16.3911    9.2870    8.4958 H           1 Y27       0.0596
@<TRIPOS>BOND
     1     1     2   2
     2     2     3   1
     3     2    12  am
     4     3     4   1
     5     3     8   1
     6     4     5   1
     7     5     6   1
     8     6     7   1
     9     6     9   1
    10     7     8   1
    11     9    10   1
    12     9    11   1
    13    12    13   1
    14    13    14  ar
    15    13    18  ar
    16    14    15  ar
    17    15    16  ar
    18    16    17  ar
    19    17    18  ar
    20     3    19   1
    21     4    20   1
    22     4    21   1
    23     5    22   1
    24     5    23   1
    25     6    24   1
    26     7    25   1
    27     7    26   1
    28     8    27   1
    29     8    28   1
    30     9    29   1
    31    10    30   1
    32    10    31   1
    33    10    32   1
    34    11    33   1
    35    11    34   1
    36    11    35   1
    37    12    36   1
    38    14    37   1
    39    15    38   1
    40    17    39   1
    41    18    40   1
@<TRIPOS>SUBSTRUCTURE
     1  Y27      2

