@<TRIPOS>MOLECULE
1q8t_ligand_061
    40    41
SMALL
GAST_HUCK
****
This file was generated by PARSER (from files_GN.cpp)

@<TRIPOS>ATOM
      1 O23        19.2945    9.5267    6.7566 O.2         1 Y27      -0.3826
      2 C22        18.3313   10.2647    6.5887 C.2         1 Y27       0.2105
      3 C31        17.1439    9.7820    5.8855 C.3         1 Y27       0.0554
      4 C36        17.4038    8.5257    4.9987 C.3         1 Y27      -0.0322
      5 C35        16.1171    8.0497    4.2775 C.3         1 Y27      -0.0428
      6 C34        14.9672    7.7333    5.2869 C.3         1 Y27       0.0020
      7 C33        14.6930    9.0033    6.1562 C.3         1 Y27      -0.0428
      8 C32        15.9676    9.5248    6.8760 C.3         1 Y27      -0.0322
      9 C41        13.6481    7.1827    4.6354 C.3         1 Y27      -0.0244
     10 C42        13.8498    6.3022    3.3752 C.3         1 Y27      -0.0215
     11 N43        12.9049    6.3809    5.6270 N.4         1 Y27       0.2207
     12 N21        18.3026   11.4866    7.1072 N.am        1 Y27      -0.2247
     13 C14        19.2927   12.1782    7.7465 C.ar        1 Y27       0.0867
     14 C15        18.8957   13.0788    8.7598 C.ar        1 Y27      -0.0140
     15 C16        19.8655   13.8503    9.4239 C.ar        1 Y27      -0.0065
     16 N11        21.1710   13.7448    9.0709 N.ar        1 Y27      -0.3199
     17 C12        21.5945   12.9073    8.0898 C.ar        1 Y27      -0.0065
     18 C13        20.6635   12.1097    7.3995 C.ar        1 Y27      -0.0140
     19 H1         16.8337   10.5790    5.2002 H           1 Y27       0.0544
     20 H2         17.7852    7.7021    5.6122 H           1 Y27       0.0293
     21 H3         18.1576    8.7602    4.2441 H           1 Y27       0.0293
     22 H4         16.3829    7.1539    3.7115 H           1 Y27       0.0271
     23 H5         15.7892    8.8128    3.5667 H           1 Y27       0.0271
     24 H6         15.3511    6.9517    5.9508 H           1 Y27       0.0355
     25 H7         13.9342    8.7834    6.9103 H           1 Y27       0.0271
     26 H8         14.3005    9.8034    5.5199 H           1 Y27       0.0271
     27 H9         15.7114   10.4545    7.3952 H           1 Y27       0.0293
     28 H10        16.2769    8.7957    7.6308 H           1 Y27       0.0293
     29 H11        13.0041    8.0188    4.3436 H           1 Y27       0.0850
     30 H12        12.9210    5.7996    3.0975 H           1 Y27       0.0284
     31 H13        14.6138    5.5445    3.5573 H           1 Y27       0.0284
     32 H14        14.1597    6.9212    2.5293 H           1 Y27       0.0284
     33 H15        12.5090    6.9886    6.3469 H           1 Y27       0.1997
     34 H16        13.5376    5.7058    6.0657 H           1 Y27       0.1997
     35 H17        12.1485    5.8655    5.1672 H           1 Y27       0.1997
     36 H18        17.4524   11.9491    7.0377 H           1 Y27       0.2307
     37 H19        17.9121   13.1702    9.0244 H           1 Y27       0.0596
     38 H20        19.5950   14.5005   10.1613 H           1 Y27       0.0771
     39 H21        22.5850   12.8739    7.8438 H           1 Y27       0.0771
     40 H22        20.9875   11.5173    6.6341 H           1 Y27       0.0596
@<TRIPOS>BOND
     1     1     2   2
     2     2     3   1
     3     2    12  am
     4     3     4   1
     5     3     8   1
     6     4     5   1
     7     5     6   1
     8     6     7   1
     9     6     9   1
    10     7     8   1
    11     9    10   1
    12     9    11   1
    13    12    13   1
    14    13    14  ar
    15    13    18  ar
    16    14    15  ar
    17    15    16  ar
    18    16    17  ar
    19    17    18  ar
    20     3    19   1
    21     4    20   1
    22     4    21   1
    23     5    22   1
    24     5    23   1
    25     6    24   1
    26     7    25   1
    27     7    26   1
    28     8    27   1
    29     8    28   1
    30     9    29   1
    31    10    30   1
    32    10    31   1
    33    10    32   1
    34    11    33   1
    35    11    34   1
    36    11    35   1
    37    12    36   1
    38    14    37   1
    39    15    38   1
    40    17    39   1
    41    18    40   1
@<TRIPOS>SUBSTRUCTURE
     1  Y27      2

