@<TRIPOS>MOLECULE
1q8t_ligand_014
    40    41
SMALL
GAST_HUCK
****
This file was generated by PARSER (from files_GN.cpp)

@<TRIPOS>ATOM
      1 O23         7.8485   10.6729    3.1664 O.2         1 Y27      -0.3826
      2 C22         8.3193    9.8644    3.9612 C.2         1 Y27       0.2105
      3 C31         9.7696    9.6663    3.9857 C.3         1 Y27       0.0554
      4 C36        10.4032   10.0622    5.3545 C.3         1 Y27      -0.0322
      5 C35        11.9403    9.8196    5.3844 C.3         1 Y27      -0.0428
      6 C34        12.3120    8.3465    5.0164 C.3         1 Y27       0.0020
      7 C33        11.6820    7.9749    3.6342 C.3         1 Y27      -0.0428
      8 C32        10.1483    8.2004    3.6123 C.3         1 Y27      -0.0322
      9 C41        13.8515    8.0673    5.1131 C.3         1 Y27      -0.0244
     10 C42        14.2087    6.5616    5.2107 C.3         1 Y27      -0.0215
     11 N43        14.5958    8.6566    3.9862 N.4         1 Y27       0.2207
     12 N21         7.5225    9.1750    4.7722 N.am        1 Y27      -0.2247
     13 C14         6.1650    9.2106    4.7712 C.ar        1 Y27       0.0867
     14 C15         5.4307    8.5280    3.7792 C.ar        1 Y27      -0.0140
     15 C16         4.0220    8.5566    3.8186 C.ar        1 Y27      -0.0065
     16 N11         3.3918    9.2393    4.8104 N.ar        1 Y27      -0.3199
     17 C12         4.0675    9.8945    5.7890 C.ar        1 Y27      -0.0065
     18 C13         5.4727    9.8819    5.8012 C.ar        1 Y27      -0.0140
     19 H1         10.2211   10.3170    3.2268 H           1 Y27       0.0544
     20 H2          9.9473    9.4733    6.1574 H           1 Y27       0.0293
     21 H3         10.1978   11.1167    5.5575 H           1 Y27       0.0293
     22 H4         12.3051   10.0501    6.3899 H           1 Y27       0.0271
     23 H5         12.4224   10.5107    4.6883 H           1 Y27       0.0271
     24 H6         11.8363    7.7122    5.7715 H           1 Y27       0.0355
     25 H7         11.8777    6.9265    3.4041 H           1 Y27       0.0271
     26 H8         12.1363    8.5809    2.8466 H           1 Y27       0.0271
     27 H9          9.7761    7.9668    2.6106 H           1 Y27       0.0293
     28 H10         9.6809    7.5014    4.3148 H           1 Y27       0.0293
     29 H11        14.2326    8.5361    6.0250 H           1 Y27       0.0850
     30 H12        15.2837    6.4372    5.3618 H           1 Y27       0.0284
     31 H13        13.9292    6.0323    4.2969 H           1 Y27       0.0284
     32 H14        13.6939    6.0984    6.0566 H           1 Y27       0.0284
     33 H15        14.4375    9.6644    3.9477 H           1 Y27       0.1997
     34 H16        14.2881    8.2271    3.1115 H           1 Y27       0.1997
     35 H17        15.5961    8.4811    4.1078 H           1 Y27       0.1997
     36 H18         7.9464    8.5907    5.4239 H           1 Y27       0.2307
     37 H19         5.9099    8.0005    3.0446 H           1 Y27       0.0596
     38 H20         3.4722    8.0670    3.1144 H           1 Y27       0.0771
     39 H21         3.5428   10.3879    6.5156 H           1 Y27       0.0771
     40 H22         5.9815   10.3712    6.5450 H           1 Y27       0.0596
@<TRIPOS>BOND
     1     1     2   2
     2     2     3   1
     3     2    12  am
     4     3     4   1
     5     3     8   1
     6     4     5   1
     7     5     6   1
     8     6     7   1
     9     6     9   1
    10     7     8   1
    11     9    10   1
    12     9    11   1
    13    12    13   1
    14    13    14  ar
    15    13    18  ar
    16    14    15  ar
    17    15    16  ar
    18    16    17  ar
    19    17    18  ar
    20     3    19   1
    21     4    20   1
    22     4    21   1
    23     5    22   1
    24     5    23   1
    25     6    24   1
    26     7    25   1
    27     7    26   1
    28     8    27   1
    29     8    28   1
    30     9    29   1
    31    10    30   1
    32    10    31   1
    33    10    32   1
    34    11    33   1
    35    11    34   1
    36    11    35   1
    37    12    36   1
    38    14    37   1
    39    15    38   1
    40    17    39   1
    41    18    40   1
@<TRIPOS>SUBSTRUCTURE
     1  Y27      2

