@<TRIPOS>MOLECULE
1q8t_ligand_030
    40    41
SMALL
GAST_HUCK
****
This file was generated by PARSER (from files_GN.cpp)

@<TRIPOS>ATOM
      1 O23         9.7392   10.1750    5.2015 O.2         1 Y27      -0.3826
      2 C22         9.6527    9.2877    4.3605 C.2         1 Y27       0.2105
      3 C31         8.4070    9.1496    3.6013 C.3         1 Y27       0.0554
      4 C36         7.2203    8.7776    4.5416 C.3         1 Y27      -0.0322
      5 C35         5.8690    8.6885    3.7804 C.3         1 Y27      -0.0428
      6 C34         5.5476    9.9985    2.9985 C.3         1 Y27       0.0020
      7 C33         6.7233   10.3265    2.0269 C.3         1 Y27      -0.0428
      8 C32         8.0844   10.4301    2.7724 C.3         1 Y27      -0.0322
      9 C41         4.1474   10.0068    2.2910 C.3         1 Y27      -0.0244
     10 C42         3.8810    8.8519    1.2905 C.3         1 Y27      -0.0215
     11 N43         3.0517   10.0080    3.2745 N.4         1 Y27       0.2207
     12 N21        10.6391    8.4125    4.1912 N.am        1 Y27      -0.2247
     13 C14        11.8682    8.3798    4.7932 C.ar        1 Y27       0.0867
     14 C15        12.6599    9.5273    5.0471 C.ar        1 Y27      -0.0140
     15 C16        13.9402    9.3745    5.6111 C.ar        1 Y27      -0.0065
     16 N11        14.4063    8.1353    5.9108 N.ar        1 Y27      -0.3199
     17 C12        13.6844    7.0127    5.6761 C.ar        1 Y27      -0.0065
     18 C13        12.4063    7.1105    5.1000 C.ar        1 Y27      -0.0140
     19 H1          8.5160    8.3335    2.8805 H           1 Y27       0.0544
     20 H2          7.1250    9.5235    5.3368 H           1 Y27       0.0293
     21 H3          7.4186    7.8088    5.0113 H           1 Y27       0.0293
     22 H4          5.0746    8.4813    4.5047 H           1 Y27       0.0271
     23 H5          5.9172    7.8428    3.0872 H           1 Y27       0.0271
     24 H6          5.5195   10.8111    3.7335 H           1 Y27       0.0355
     25 H7          6.5316   11.2791    1.5239 H           1 Y27       0.0271
     26 H8          6.8028    9.5531    1.2583 H           1 Y27       0.0271
     27 H9          8.8758   10.5984    2.0339 H           1 Y27       0.0293
     28 H10         8.0524   11.3016    3.4328 H           1 Y27       0.0293
     29 H11         4.0556   10.9456    1.7389 H           1 Y27       0.0850
     30 H12         2.9319    9.0257    0.7785 H           1 Y27       0.0284
     31 H13         3.8172    7.8936    1.8108 H           1 Y27       0.0284
     32 H14         4.6658    8.7933    0.5369 H           1 Y27       0.0284
     33 H15         3.2058   10.7440    3.9691 H           1 Y27       0.1997
     34 H16         3.0113    9.1001    3.7458 H           1 Y27       0.1997
     35 H17         2.1598   10.1781    2.7988 H           1 Y27       0.1997
     36 H18        10.4386    7.6608    3.6088 H           1 Y27       0.2307
     37 H19        12.3339   10.4627    4.7968 H           1 Y27       0.0596
     38 H20        14.5311   10.1840    5.7942 H           1 Y27       0.0771
     39 H21        14.0746    6.1015    5.9244 H           1 Y27       0.0771
     40 H22        11.8666    6.2601    4.9266 H           1 Y27       0.0596
@<TRIPOS>BOND
     1     1     2   2
     2     2     3   1
     3     2    12  am
     4     3     4   1
     5     3     8   1
     6     4     5   1
     7     5     6   1
     8     6     7   1
     9     6     9   1
    10     7     8   1
    11     9    10   1
    12     9    11   1
    13    12    13   1
    14    13    14  ar
    15    13    18  ar
    16    14    15  ar
    17    15    16  ar
    18    16    17  ar
    19    17    18  ar
    20     3    19   1
    21     4    20   1
    22     4    21   1
    23     5    22   1
    24     5    23   1
    25     6    24   1
    26     7    25   1
    27     7    26   1
    28     8    27   1
    29     8    28   1
    30     9    29   1
    31    10    30   1
    32    10    31   1
    33    10    32   1
    34    11    33   1
    35    11    34   1
    36    11    35   1
    37    12    36   1
    38    14    37   1
    39    15    38   1
    40    17    39   1
    41    18    40   1
@<TRIPOS>SUBSTRUCTURE
     1  Y27      2

