@<TRIPOS>MOLECULE
1q8t_ligand_025
    40    41
SMALL
GAST_HUCK
****
This file was generated by PARSER (from files_GN.cpp)

@<TRIPOS>ATOM
      1 O23        15.6971    8.8592   -0.6502 O.2         1 Y27      -0.3826
      2 C22        16.3793    7.8380   -0.6187 C.2         1 Y27       0.2105
      3 C31        17.0191    7.4183    0.6298 C.3         1 Y27       0.0554
      4 C36        17.8316    8.5582    1.3268 C.3         1 Y27      -0.0322
      5 C35        16.9705    9.4685    2.2395 C.3         1 Y27      -0.0428
      6 C34        16.1206    8.6959    3.2940 C.3         1 Y27       0.0020
      7 C33        15.2504    7.6229    2.5664 C.3         1 Y27      -0.0428
      8 C32        16.0406    6.6904    1.6040 C.3         1 Y27      -0.0322
      9 C41        16.8412    8.2119    4.6142 C.3         1 Y27      -0.0244
     10 C42        17.6175    6.8702    4.6095 C.3         1 Y27      -0.0215
     11 N43        17.7448    9.2489    5.1421 N.4         1 Y27       0.2207
     12 N21        16.5127    7.0811   -1.7063 N.am        1 Y27      -0.2247
     13 C14        16.1517    7.4241   -2.9705 C.ar        1 Y27       0.0867
     14 C15        16.9813    8.2679   -3.7252 C.ar        1 Y27      -0.0140
     15 C16        16.6600    8.5138   -5.0828 C.ar        1 Y27      -0.0065
     16 N11        15.5650    7.9247   -5.6279 N.ar        1 Y27      -0.3199
     17 C12        14.7507    7.1019   -4.9236 C.ar        1 Y27      -0.0065
     18 C13        15.0295    6.8236   -3.5684 C.ar        1 Y27      -0.0140
     19 H1         17.7752    6.6739    0.3541 H           1 Y27       0.0544
     20 H2         18.3296    9.1819    0.5763 H           1 Y27       0.0293
     21 H3         18.6177    8.1117    1.9313 H           1 Y27       0.0293
     22 H4         16.2927   10.0517    1.6082 H           1 Y27       0.0271
     23 H5         17.6178   10.1981    2.7308 H           1 Y27       0.0271
     24 H6         15.3990    9.4336    3.6589 H           1 Y27       0.0355
     25 H7         14.4889    8.1360    1.9731 H           1 Y27       0.0271
     26 H8         14.7281    7.0070    3.3001 H           1 Y27       0.0271
     27 H9         16.6145    5.9849    2.1963 H           1 Y27       0.0293
     28 H10        15.3303    6.0864    1.0308 H           1 Y27       0.0293
     29 H11        16.0626    8.0962    5.3768 H           1 Y27       0.0850
     30 H12        18.1234    6.7217    5.5644 H           1 Y27       0.0284
     31 H13        18.3693    6.8468    3.8245 H           1 Y27       0.0284
     32 H14        16.9341    6.0288    4.4879 H           1 Y27       0.0284
     33 H15        17.2655   10.1515    5.1774 H           1 Y27       0.1997
     34 H16        18.5675    9.3229    4.5366 H           1 Y27       0.1997
     35 H17        18.0474    8.9927    6.0851 H           1 Y27       0.1997
     36 H18        16.9787    6.2389   -1.6229 H           1 Y27       0.2307
     37 H19        17.8214    8.6903   -3.3229 H           1 Y27       0.0596
     38 H20        17.2521    9.1176   -5.6513 H           1 Y27       0.0771
     39 H21        13.9391    6.6774   -5.3801 H           1 Y27       0.0771
     40 H22        14.4202    6.1920   -3.0414 H           1 Y27       0.0596
@<TRIPOS>BOND
     1     1     2   2
     2     2     3   1
     3     2    12  am
     4     3     4   1
     5     3     8   1
     6     4     5   1
     7     5     6   1
     8     6     7   1
     9     6     9   1
    10     7     8   1
    11     9    10   1
    12     9    11   1
    13    12    13   1
    14    13    14  ar
    15    13    18  ar
    16    14    15  ar
    17    15    16  ar
    18    16    17  ar
    19    17    18  ar
    20     3    19   1
    21     4    20   1
    22     4    21   1
    23     5    22   1
    24     5    23   1
    25     6    24   1
    26     7    25   1
    27     7    26   1
    28     8    27   1
    29     8    28   1
    30     9    29   1
    31    10    30   1
    32    10    31   1
    33    10    32   1
    34    11    33   1
    35    11    34   1
    36    11    35   1
    37    12    36   1
    38    14    37   1
    39    15    38   1
    40    17    39   1
    41    18    40   1
@<TRIPOS>SUBSTRUCTURE
     1  Y27      2

