@<TRIPOS>MOLECULE
1q8t_ligand_034
    40    41
SMALL
GAST_HUCK
****
This file was generated by PARSER (from files_GN.cpp)

@<TRIPOS>ATOM
      1 O23         8.9944    8.6162    1.2000 O.2         1 Y27      -0.3826
      2 C22         8.7026    8.1004    2.2792 C.2         1 Y27       0.2105
      3 C31         9.6019    7.1475    2.9316 C.3         1 Y27       0.0554
      4 C36        10.9001    6.7554    2.1519 C.3         1 Y27      -0.0322
      5 C35        11.9945    7.8531    2.1884 C.3         1 Y27      -0.0428
      6 C34        12.3787    8.3005    3.6370 C.3         1 Y27       0.0020
      7 C33        11.0806    8.6859    4.4232 C.3         1 Y27      -0.0428
      8 C32         9.9629    7.6040    4.3792 C.3         1 Y27      -0.0322
      9 C41        13.3856    7.3220    4.3765 C.3         1 Y27      -0.0244
     10 C42        14.6125    8.0649    4.9728 C.3         1 Y27      -0.0215
     11 N43        12.8019    6.5173    5.4667 N.4         1 Y27       0.2207
     12 N21         7.5088    8.2975    2.8281 N.am        1 Y27      -0.2247
     13 C14         6.4907    9.1070    2.4259 C.ar        1 Y27       0.0867
     14 C15         5.1917    8.5598    2.4413 C.ar        1 Y27      -0.0140
     15 C16         4.0966    9.3632    2.0845 C.ar        1 Y27      -0.0065
     16 N11         4.2963   10.6673    1.7618 N.ar        1 Y27      -0.3199
     17 C12         5.5276   11.2376    1.7539 C.ar        1 Y27      -0.0065
     18 C13         6.6585   10.4691    2.0850 C.ar        1 Y27      -0.0140
     19 H1          9.0338    6.2127    3.0242 H           1 Y27       0.0544
     20 H2         10.6493    6.5222    1.1117 H           1 Y27       0.0293
     21 H3         11.3179    5.8419    2.5866 H           1 Y27       0.0293
     22 H4         11.6305    8.7244    1.6346 H           1 Y27       0.0271
     23 H5         12.8789    7.4932    1.6555 H           1 Y27       0.0271
     24 H6         12.9185    9.2447    3.4861 H           1 Y27       0.0355
     25 H7         10.6793    9.6146    3.9946 H           1 Y27       0.0271
     26 H8         11.3359    8.9142    5.4606 H           1 Y27       0.0271
     27 H9         10.2952    6.7268    4.9403 H           1 Y27       0.0293
     28 H10         9.0791    7.9964    4.8915 H           1 Y27       0.0293
     29 H11        13.7844    6.6024    3.6566 H           1 Y27       0.0850
     30 H12        15.2866    7.3567    5.4645 H           1 Y27       0.0284
     31 H13        14.2893    8.8122    5.7040 H           1 Y27       0.0284
     32 H14        15.1739    8.5655    4.1788 H           1 Y27       0.0284
     33 H15        12.1215    5.8557    5.0833 H           1 Y27       0.1997
     34 H16        12.3443    7.1290    6.1432 H           1 Y27       0.1997
     35 H17        13.5525    6.0034    5.9485 H           1 Y27       0.1997
     36 H18         7.3157    7.7415    3.6030 H           1 Y27       0.2307
     37 H19         5.0383    7.5811    2.6965 H           1 Y27       0.0596
     38 H20         3.1498    8.9790    2.0719 H           1 Y27       0.0771
     39 H21         5.6233   12.2273    1.5142 H           1 Y27       0.0771
     40 H22         7.5808   10.9107    2.1121 H           1 Y27       0.0596
@<TRIPOS>BOND
     1     1     2   2
     2     2     3   1
     3     2    12  am
     4     3     4   1
     5     3     8   1
     6     4     5   1
     7     5     6   1
     8     6     7   1
     9     6     9   1
    10     7     8   1
    11     9    10   1
    12     9    11   1
    13    12    13   1
    14    13    14  ar
    15    13    18  ar
    16    14    15  ar
    17    15    16  ar
    18    16    17  ar
    19    17    18  ar
    20     3    19   1
    21     4    20   1
    22     4    21   1
    23     5    22   1
    24     5    23   1
    25     6    24   1
    26     7    25   1
    27     7    26   1
    28     8    27   1
    29     8    28   1
    30     9    29   1
    31    10    30   1
    32    10    31   1
    33    10    32   1
    34    11    33   1
    35    11    34   1
    36    11    35   1
    37    12    36   1
    38    14    37   1
    39    15    38   1
    40    17    39   1
    41    18    40   1
@<TRIPOS>SUBSTRUCTURE
     1  Y27      2

