@<TRIPOS>MOLECULE
1q8t_ligand_024
    40    41
SMALL
GAST_HUCK
****
This file was generated by PARSER (from files_GN.cpp)

@<TRIPOS>ATOM
      1 O23        18.6032   10.7919    1.0726 O.2         1 Y27      -0.3826
      2 C22        19.0737    9.8823    0.4017 C.2         1 Y27       0.2105
      3 C31        18.1802    8.9830   -0.3440 C.3         1 Y27       0.0554
      4 C36        16.6481    9.2511   -0.1914 C.3         1 Y27      -0.0322
      5 C35        16.1721   10.4997   -0.9745 C.3         1 Y27      -0.0428
      6 C34        16.5461   10.4918   -2.4934 C.3         1 Y27       0.0020
      7 C33        18.0611   10.1412   -2.6747 C.3         1 Y27      -0.0428
      8 C32        18.5245    8.8978   -1.8619 C.3         1 Y27      -0.0322
      9 C41        15.5698    9.7486   -3.4806 C.3         1 Y27      -0.0244
     10 C42        15.8536    8.2713   -3.8367 C.3         1 Y27      -0.0215
     11 N43        14.1859    9.8362   -2.9965 N.4         1 Y27       0.2207
     12 N21        20.3805    9.6309    0.3975 N.am        1 Y27      -0.2247
     13 C14        21.4444   10.2818    0.9721 C.ar        1 Y27       0.0867
     14 C15        22.7086    9.6805    0.7593 C.ar        1 Y27      -0.0140
     15 C16        23.8644   10.2570    1.3116 C.ar        1 Y27      -0.0065
     16 N11        23.7688   11.3995    2.0355 N.ar        1 Y27      -0.3199
     17 C12        22.5842   12.0171    2.2608 C.ar        1 Y27      -0.0065
     18 C13        21.3958   11.4778    1.7314 C.ar        1 Y27      -0.0140
     19 H1         18.3461    7.9930    0.0833 H           1 Y27       0.0544
     20 H2         16.3951    9.3680    0.8674 H           1 Y27       0.0293
     21 H3         16.0912    8.3851   -0.5554 H           1 Y27       0.0293
     22 H4         16.6288   11.3779   -0.5082 H           1 Y27       0.0271
     23 H5         15.0970   10.6176   -0.8326 H           1 Y27       0.0271
     24 H6         16.4604   11.5455   -2.7938 H           1 Y27       0.0355
     25 H7         18.6611   10.9957   -2.3500 H           1 Y27       0.0271
     26 H8         18.2775    9.9888   -3.7365 H           1 Y27       0.0271
     27 H9         18.0384    8.0096   -2.2725 H           1 Y27       0.0293
     28 H10        19.5979    8.7592   -2.0065 H           1 Y27       0.0293
     29 H11        15.5911   10.2961   -4.4259 H           1 Y27       0.0850
     30 H12        15.0743    7.8925   -4.5024 H           1 Y27       0.0284
     31 H13        15.8805    7.6464   -2.9460 H           1 Y27       0.0284
     32 H14        16.8021    8.1762   -4.3722 H           1 Y27       0.0284
     33 H15        13.9523   10.8108   -2.7879 H           1 Y27       0.1997
     34 H16        14.0887    9.2737   -2.1513 H           1 Y27       0.1997
     35 H17        13.5447    9.4556   -3.6876 H           1 Y27       0.1997
     36 H18        20.6313    8.8349   -0.1032 H           1 Y27       0.2307
     37 H19        22.7946    8.8244    0.2133 H           1 Y27       0.0596
     38 H20        24.7798    9.8295    1.1637 H           1 Y27       0.0771
     39 H21        22.5605   12.8781    2.8072 H           1 Y27       0.0771
     40 H22        20.5218   11.9737    1.9013 H           1 Y27       0.0596
@<TRIPOS>BOND
     1     1     2   2
     2     2     3   1
     3     2    12  am
     4     3     4   1
     5     3     8   1
     6     4     5   1
     7     5     6   1
     8     6     7   1
     9     6     9   1
    10     7     8   1
    11     9    10   1
    12     9    11   1
    13    12    13   1
    14    13    14  ar
    15    13    18  ar
    16    14    15  ar
    17    15    16  ar
    18    16    17  ar
    19    17    18  ar
    20     3    19   1
    21     4    20   1
    22     4    21   1
    23     5    22   1
    24     5    23   1
    25     6    24   1
    26     7    25   1
    27     7    26   1
    28     8    27   1
    29     8    28   1
    30     9    29   1
    31    10    30   1
    32    10    31   1
    33    10    32   1
    34    11    33   1
    35    11    34   1
    36    11    35   1
    37    12    36   1
    38    14    37   1
    39    15    38   1
    40    17    39   1
    41    18    40   1
@<TRIPOS>SUBSTRUCTURE
     1  Y27      2

