@<TRIPOS>MOLECULE
1q8t_ligand_050
    40    41
SMALL
GAST_HUCK
****
This file was generated by PARSER (from files_GN.cpp)

@<TRIPOS>ATOM
      1 O23        10.9820    8.1199    3.4823 O.2         1 Y27      -0.3826
      2 C22        11.3455    8.5418    4.5811 C.2         1 Y27       0.2105
      3 C31        12.6767    8.2297    5.1007 C.3         1 Y27       0.0554
      4 C36        13.4958    7.2224    4.2251 C.3         1 Y27      -0.0322
      5 C35        14.9214    6.9700    4.7738 C.3         1 Y27      -0.0428
      6 C34        15.7429    8.2896    4.9051 C.3         1 Y27       0.0020
      7 C33        14.9408    9.2854    5.8030 C.3         1 Y27      -0.0428
      8 C32        13.5020    9.5438    5.2940 C.3         1 Y27      -0.0322
      9 C41        17.2113    8.1148    5.4256 C.3         1 Y27      -0.0244
     10 C42        17.9915    6.8956    4.8724 C.3         1 Y27      -0.0215
     11 N43        18.0085    9.3134    5.0952 N.4         1 Y27       0.2207
     12 N21        10.5255    9.2782    5.3260 N.am        1 Y27      -0.2247
     13 C14         9.2735    9.7489    5.0311 C.ar        1 Y27       0.0867
     14 C15         8.3734    9.8651    6.1118 C.ar        1 Y27      -0.0140
     15 C16         7.0783   10.3761    5.8811 C.ar        1 Y27      -0.0065
     16 N11         6.7277   10.7644    4.6262 N.ar        1 Y27      -0.3199
     17 C12         7.5709   10.6797    3.5706 C.ar        1 Y27      -0.0065
     18 C13         8.8681   10.1707    3.7494 C.ar        1 Y27      -0.0140
     19 H1         12.5436    7.7673    6.0843 H           1 Y27       0.0544
     20 H2         13.5735    7.6154    3.2041 H           1 Y27       0.0293
     21 H3         12.9625    6.2660    4.1659 H           1 Y27       0.0293
     22 H4         15.4309    6.3019    4.0776 H           1 Y27       0.0271
     23 H5         14.8650    6.4729    5.7446 H           1 Y27       0.0271
     24 H6         15.7966    8.7147    3.8981 H           1 Y27       0.0355
     25 H7         15.4677   10.2419    5.8482 H           1 Y27       0.0271
     26 H8         14.8774    8.8942    6.8222 H           1 Y27       0.0271
     27 H9         13.0002   10.1943    6.0197 H           1 Y27       0.0293
     28 H10        13.5532   10.0867    4.3448 H           1 Y27       0.0293
     29 H11        17.2152    8.0149    6.5139 H           1 Y27       0.0850
     30 H12        19.0325    6.9228    5.2024 H           1 Y27       0.0284
     31 H13        17.9695    6.8855    3.7795 H           1 Y27       0.0284
     32 H14        17.5382    5.9777    5.2510 H           1 Y27       0.0284
     33 H15        17.5799   10.1466    5.5037 H           1 Y27       0.1997
     34 H16        18.0594    9.4217    4.0787 H           1 Y27       0.1997
     35 H17        18.9559    9.2066    5.4648 H           1 Y27       0.1997
     36 H18        10.8209    9.4414    6.2342 H           1 Y27       0.2307
     37 H19         8.6410    9.5799    7.0533 H           1 Y27       0.0596
     38 H20         6.4267   10.4725    6.6516 H           1 Y27       0.0771
     39 H21         7.2651   11.0096    2.6519 H           1 Y27       0.0771
     40 H22         9.5102   10.1372    2.9495 H           1 Y27       0.0596
@<TRIPOS>BOND
     1     1     2   2
     2     2     3   1
     3     2    12  am
     4     3     4   1
     5     3     8   1
     6     4     5   1
     7     5     6   1
     8     6     7   1
     9     6     9   1
    10     7     8   1
    11     9    10   1
    12     9    11   1
    13    12    13   1
    14    13    14  ar
    15    13    18  ar
    16    14    15  ar
    17    15    16  ar
    18    16    17  ar
    19    17    18  ar
    20     3    19   1
    21     4    20   1
    22     4    21   1
    23     5    22   1
    24     5    23   1
    25     6    24   1
    26     7    25   1
    27     7    26   1
    28     8    27   1
    29     8    28   1
    30     9    29   1
    31    10    30   1
    32    10    31   1
    33    10    32   1
    34    11    33   1
    35    11    34   1
    36    11    35   1
    37    12    36   1
    38    14    37   1
    39    15    38   1
    40    17    39   1
    41    18    40   1
@<TRIPOS>SUBSTRUCTURE
     1  Y27      2

