@<TRIPOS>MOLECULE
1q8t_ligand_062
    40    41
SMALL
GAST_HUCK
****
This file was generated by PARSER (from files_GN.cpp)

@<TRIPOS>ATOM
      1 O23        18.6489    9.9482    7.7433 O.2         1 Y27      -0.3826
      2 C22        18.0038   10.0697    6.7083 C.2         1 Y27       0.2105
      3 C31        16.8500    9.1934    6.4973 C.3         1 Y27       0.0554
      4 C36        15.5242    9.9906    6.3212 C.3         1 Y27      -0.0322
      5 C35        14.3081    9.0655    6.0398 C.3         1 Y27      -0.0428
      6 C34        14.5500    8.1057    4.8281 C.3         1 Y27       0.0020
      7 C33        15.8823    7.3158    5.0274 C.3         1 Y27      -0.0428
      8 C32        17.0931    8.2483    5.2843 C.3         1 Y27      -0.0322
      9 C41        13.3078    7.1913    4.5418 C.3         1 Y27      -0.0244
     10 C42        13.4549    6.3099    3.2692 C.3         1 Y27      -0.0215
     11 N43        12.9654    6.3227    5.6798 N.4         1 Y27       0.2207
     12 N21        18.3335   10.9801    5.7916 N.am        1 Y27      -0.2247
     13 C14        19.4246   11.8027    5.7943 C.ar        1 Y27       0.0867
     14 C15        20.7192   11.3768    6.1841 C.ar        1 Y27      -0.0140
     15 C16        21.7927   12.2700    6.1067 C.ar        1 Y27      -0.0065
     16 N11        21.5922   13.5344    5.6507 N.ar        1 Y27      -0.3199
     17 C12        20.3705   13.9798    5.2560 C.ar        1 Y27      -0.0065
     18 C13        19.2613   13.1179    5.3088 C.ar        1 Y27      -0.0140
     19 H1         16.7294    8.5600    7.3831 H           1 Y27       0.0544
     20 H2         15.6193   10.6903    5.4899 H           1 Y27       0.0293
     21 H3         15.3247   10.5735    7.2251 H           1 Y27       0.0293
     22 H4         13.4348    9.6928    5.8376 H           1 Y27       0.0271
     23 H5         14.0977    8.4861    6.9393 H           1 Y27       0.0271
     24 H6         14.6805    8.7425    3.9465 H           1 Y27       0.0355
     25 H7         16.1069    6.7307    4.1323 H           1 Y27       0.0271
     26 H8         15.7816    6.6201    5.8647 H           1 Y27       0.0271
     27 H9         17.9771    7.6291    5.4702 H           1 Y27       0.0293
     28 H10        17.2792    8.8354    4.3802 H           1 Y27       0.0293
     29 H11        12.4451    7.8415    4.3741 H           1 Y27       0.0850
     30 H12        12.5128    5.8023    3.0583 H           1 Y27       0.0284
     31 H13        14.2227    5.5487    3.4108 H           1 Y27       0.0284
     32 H14        13.7190    6.9244    2.4103 H           1 Y27       0.0284
     33 H15        12.6995    6.8964    6.4833 H           1 Y27       0.1997
     34 H16        13.7677    5.7413    5.9306 H           1 Y27       0.1997
     35 H17        12.1789    5.7216    5.4254 H           1 Y27       0.1997
     36 H18        17.7116   11.1102    5.0704 H           1 Y27       0.2307
     37 H19        20.8810   10.4174    6.4937 H           1 Y27       0.0596
     38 H20        22.7339   11.9727    6.3676 H           1 Y27       0.0771
     39 H21        20.2684   14.9354    4.9169 H           1 Y27       0.0771
     40 H22        18.3405   13.4537    5.0012 H           1 Y27       0.0596
@<TRIPOS>BOND
     1     1     2   2
     2     2     3   1
     3     2    12  am
     4     3     4   1
     5     3     8   1
     6     4     5   1
     7     5     6   1
     8     6     7   1
     9     6     9   1
    10     7     8   1
    11     9    10   1
    12     9    11   1
    13    12    13   1
    14    13    14  ar
    15    13    18  ar
    16    14    15  ar
    17    15    16  ar
    18    16    17  ar
    19    17    18  ar
    20     3    19   1
    21     4    20   1
    22     4    21   1
    23     5    22   1
    24     5    23   1
    25     6    24   1
    26     7    25   1
    27     7    26   1
    28     8    27   1
    29     8    28   1
    30     9    29   1
    31    10    30   1
    32    10    31   1
    33    10    32   1
    34    11    33   1
    35    11    34   1
    36    11    35   1
    37    12    36   1
    38    14    37   1
    39    15    38   1
    40    17    39   1
    41    18    40   1
@<TRIPOS>SUBSTRUCTURE
     1  Y27      2

