@<TRIPOS>MOLECULE
1q8u_ligand_086
    44    46
SMALL
GAST_HUCK
****
This file was generated by PARSER (from files_GN.cpp)

@<TRIPOS>ATOM
      1 O1         12.5195    9.2293    0.9501 O.2         1 H52      -0.1497
      2 S5         12.0358   10.6724    0.4887 S.o2        1 H52       0.0732
      3 O2         11.9492   10.3922   -1.0757 O.2         1 H52      -0.1497
      4 N21        13.2459   11.8597    0.6244 N.am        1 H52      -0.2257
      5 C22        12.9181   13.2401    0.2964 C.3         1 H52       0.0778
      6 C2M        12.5621   14.0485    1.5724 C.3         1 H52      -0.0402
      7 C23        14.0031   14.0001   -0.5244 C.3         1 H52      -0.0136
      8 N24        14.5119   13.2089   -1.6682 N.4         1 H52       0.2284
      9 C25        15.6557   12.3133   -1.3857 C.3         1 H52      -0.0321
     10 C26        15.3212   11.0866   -0.5023 C.3         1 H52       0.0045
     11 C27        14.6088   11.4285    0.8339 C.3         1 H52       0.0350
     12 C5         10.4459   10.9399    1.2032 C.ar        1 H52       0.1228
     13 C10        10.0867   10.9019    2.5971 C.ar        1 H52       0.0294
     14 C4         10.9783   10.8386    3.7357 C.ar        1 H52      -0.0110
     15 CM         12.4639   10.9058    3.7040 C.3         1 H52      -0.0231
     16 C9          8.6785   10.9423    2.9056 C.ar        1 H52       0.0043
     17 C8          7.6964   11.0675    1.8945 C.ar        1 H52      -0.0481
     18 C7          8.0774   11.1717    0.5609 C.ar        1 H52      -0.0552
     19 C6          9.4301   11.1100    0.2215 C.ar        1 H52      -0.0302
     20 C1          8.2201   10.8614    4.2330 C.ar        1 H52       0.0104
     21 N2          9.0965   10.7643    5.2483 N.ar        1 H52      -0.3085
     22 C3         10.4258   10.7522    5.0365 C.ar        1 H52       0.0074
     23 H1         12.0210   13.2525   -0.3328 H           1 H52       0.0564
     24 H2         12.3135   15.0803    1.3147 H           1 H52       0.0250
     25 H3         13.4025   14.0599    2.2687 H           1 H52       0.0250
     26 H4         11.6973   13.6129    2.0737 H           1 H52       0.0250
     27 H5         14.8277   14.3145    0.1229 H           1 H52       0.0832
     28 H6         13.5606   14.9122   -0.9345 H           1 H52       0.0832
     29 H7         14.8192   13.8737   -2.3815 H           1 H52       0.2014
     30 H8         13.7441   12.6585   -2.0584 H           1 H52       0.2014
     31 H9         16.4642   12.8839   -0.9226 H           1 H52       0.0814
     32 H10        16.0294   11.9496   -2.3453 H           1 H52       0.0814
     33 H11        16.2592   10.5724   -0.2727 H           1 H52       0.0333
     34 H12        14.7034   10.3897   -1.0746 H           1 H52       0.0333
     35 H13        14.6454   10.5434    1.4741 H           1 H52       0.0480
     36 H14        15.1708   12.1974    1.3639 H           1 H52       0.0480
     37 H15        12.9228   10.9937    4.6919 H           1 H52       0.0421
     38 H16        12.7854   11.7844    3.1626 H           1 H52       0.0421
     39 H17        12.8704   10.0065    3.2557 H           1 H52       0.0421
     40 H18         6.6968   11.0980    2.1238 H           1 H52       0.0643
     41 H19         7.3642   11.2782   -0.1716 H           1 H52       0.0642
     42 H20         9.6477   11.1711   -0.7736 H           1 H52       0.0657
     43 H21         7.2207   10.8724    4.4632 H           1 H52       0.0786
     44 H22        11.0157   10.6872    5.8698 H           1 H52       0.0687
@<TRIPOS>BOND
     1     1     2   2
     2     2     3   2
     3     2     4  am
     4     2    12   1
     5     4     5   1
     6     4    11   1
     7     5     6   1
     8     5     7   1
     9     7     8   1
    10     8     9   1
    11     9    10   1
    12    10    11   1
    13    12    13  ar
    14    12    19  ar
    15    13    14  ar
    16    13    16  ar
    17    14    15   1
    18    14    22  ar
    19    16    17  ar
    20    16    20  ar
    21    17    18  ar
    22    18    19  ar
    23    20    21  ar
    24    21    22  ar
    25     5    23   1
    26     6    24   1
    27     6    25   1
    28     6    26   1
    29     7    27   1
    30     7    28   1
    31     8    29   1
    32     8    30   1
    33     9    31   1
    34     9    32   1
    35    10    33   1
    36    10    34   1
    37    11    35   1
    38    11    36   1
    39    15    37   1
    40    15    38   1
    41    15    39   1
    42    17    40   1
    43    18    41   1
    44    19    42   1
    45    20    43   1
    46    22    44   1
@<TRIPOS>SUBSTRUCTURE
     1  H52      5

