@<TRIPOS>MOLECULE
1q8u_ligand_007
    44    46
SMALL
GAST_HUCK
****
This file was generated by PARSER (from files_GN.cpp)

@<TRIPOS>ATOM
      1 O1         14.1495    9.0875   -0.7786 O.2         1 H52      -0.1497
      2 S5         14.9614   10.3554   -1.2891 S.o2        1 H52       0.0732
      3 O2         13.9023   10.6618   -2.4384 O.2         1 H52      -0.1497
      4 N21        16.3983    9.9831   -2.1260 N.am        1 H52      -0.2257
      5 C22        17.4404    9.2108   -1.4669 C.3         1 H52       0.0778
      6 C2M        18.0178    9.8724   -0.1854 C.3         1 H52      -0.0402
      7 C23        17.0188    7.7212   -1.2708 C.3         1 H52      -0.0136
      8 N24        16.1568    7.1657   -2.3456 N.4         1 H52       0.2284
      9 C25        16.5290    7.4438   -3.7507 C.3         1 H52      -0.0321
     10 C26        15.9063    8.7686   -4.2661 C.3         1 H52       0.0045
     11 C27        16.4396   10.0547   -3.5743 C.3         1 H52       0.0350
     12 C5         14.8022   11.8952   -0.4572 C.ar        1 H52       0.1228
     13 C10        14.0127   12.1598    0.7151 C.ar        1 H52       0.0294
     14 C4         13.6546   11.2178    1.7409 C.ar        1 H52      -0.0110
     15 CM         14.2970    9.9036    1.9988 C.3         1 H52      -0.0231
     16 C9         13.5241   13.4981    0.8795 C.ar        1 H52       0.0043
     17 C8         13.9117   14.5343    0.0014 C.ar        1 H52      -0.0481
     18 C7         14.8199   14.2777   -1.0308 C.ar        1 H52      -0.0552
     19 C6         15.2673   12.9733   -1.2479 C.ar        1 H52      -0.0302
     20 C1         12.6184   13.8034    1.9206 C.ar        1 H52       0.0104
     21 N2         12.2276   12.8517    2.7907 N.ar        1 H52      -0.3085
     22 C3         12.7101   11.5959    2.7294 C.ar        1 H52       0.0074
     23 H1         18.3144    9.1638   -2.1256 H           1 H52       0.0564
     24 H2         18.8945    9.3211    0.1670 H           1 H52       0.0250
     25 H3         17.2840    9.8912    0.6206 H           1 H52       0.0250
     26 H4         18.3178   10.9017   -0.4045 H           1 H52       0.0250
     27 H5         16.4648    7.6177   -0.3333 H           1 H52       0.0832
     28 H6         17.9135    7.0945   -1.1902 H           1 H52       0.0832
     29 H7         15.2096    7.5206   -2.2030 H           1 H52       0.2014
     30 H8         16.1230    6.1504   -2.2249 H           1 H52       0.2014
     31 H9         16.1294    6.6255   -4.3581 H           1 H52       0.0814
     32 H10        17.6142    7.4453   -3.8792 H           1 H52       0.0814
     33 H11        14.8242    8.7094   -4.1290 H           1 H52       0.0333
     34 H12        16.0927    8.8490   -5.3404 H           1 H52       0.0333
     35 H13        17.4616   10.2370   -3.9160 H           1 H52       0.0480
     36 H14        15.8658   10.9073   -3.9382 H           1 H52       0.0480
     37 H15        14.5823    9.8174    3.0463 H           1 H52       0.0421
     38 H16        15.2116    9.7693    1.4352 H           1 H52       0.0421
     39 H17        13.6012    9.0974    1.7652 H           1 H52       0.0421
     40 H18        13.5415   15.4827    0.1019 H           1 H52       0.0643
     41 H19        15.1057   15.0262   -1.6649 H           1 H52       0.0642
     42 H20        15.8587   12.8125   -2.0667 H           1 H52       0.0657
     43 H21        12.2280   14.7423    2.0241 H           1 H52       0.0786
     44 H22        12.4093   10.9361    3.4546 H           1 H52       0.0687
@<TRIPOS>BOND
     1     1     2   2
     2     2     3   2
     3     2     4  am
     4     2    12   1
     5     4     5   1
     6     4    11   1
     7     5     6   1
     8     5     7   1
     9     7     8   1
    10     8     9   1
    11     9    10   1
    12    10    11   1
    13    12    13  ar
    14    12    19  ar
    15    13    14  ar
    16    13    16  ar
    17    14    15   1
    18    14    22  ar
    19    16    17  ar
    20    16    20  ar
    21    17    18  ar
    22    18    19  ar
    23    20    21  ar
    24    21    22  ar
    25     5    23   1
    26     6    24   1
    27     6    25   1
    28     6    26   1
    29     7    27   1
    30     7    28   1
    31     8    29   1
    32     8    30   1
    33     9    31   1
    34     9    32   1
    35    10    33   1
    36    10    34   1
    37    11    35   1
    38    11    36   1
    39    15    37   1
    40    15    38   1
    41    15    39   1
    42    17    40   1
    43    18    41   1
    44    19    42   1
    45    20    43   1
    46    22    44   1
@<TRIPOS>SUBSTRUCTURE
     1  H52      5

