@<TRIPOS>MOLECULE
1q8u_ligand_019
    44    46
SMALL
GAST_HUCK
****
This file was generated by PARSER (from files_GN.cpp)

@<TRIPOS>ATOM
      1 O1         17.9489    6.7992   -0.1056 O.2         1 H52      -0.1497
      2 S5         17.8298    8.3465   -0.4578 S.o2        1 H52       0.0732
      3 O2         19.3064    8.7001    0.0236 O.2         1 H52      -0.1497
      4 N21        16.8472    9.2388    0.6073 N.am        1 H52      -0.2257
      5 C22        16.0826    8.5631    1.6410 C.3         1 H52       0.0778
      6 C2M        16.8120    8.6406    3.0095 C.3         1 H52      -0.0402
      7 C23        14.5917    9.0140    1.7276 C.3         1 H52      -0.0136
      8 N24        14.3962   10.4424    2.0596 N.4         1 H52       0.2284
      9 C25        14.4422   11.4188    0.9461 C.3         1 H52      -0.0321
     10 C26        15.6175   11.2884   -0.0567 C.3         1 H52       0.0045
     11 C27        16.9127   10.6859    0.5426 C.3         1 H52       0.0350
     12 C5         17.6871    8.6918   -2.1836 C.ar        1 H52       0.1228
     13 C10        16.8491    8.0445   -3.1664 C.ar        1 H52       0.0294
     14 C4         15.8197    7.0612   -2.9271 C.ar        1 H52      -0.0110
     15 CM         15.3456    6.5778   -1.6003 C.3         1 H52      -0.0231
     16 C9         17.0419    8.4365   -4.5414 C.ar        1 H52       0.0043
     17 C8         17.9529    9.4472   -4.9101 C.ar        1 H52      -0.0481
     18 C7         18.6840   10.1164   -3.9326 C.ar        1 H52      -0.0552
     19 C6         18.5517    9.7400   -2.5944 C.ar        1 H52      -0.0302
     20 C1         16.3019    7.8296   -5.5786 C.ar        1 H52       0.0104
     21 N2         15.3836    6.8886   -5.2992 N.ar        1 H52      -0.3085
     22 C3         15.1265    6.5051   -4.0344 C.ar        1 H52       0.0074
     23 H1         16.0267    7.4965    1.4074 H           1 H52       0.0564
     24 H2         16.3168    7.9977    3.7403 H           1 H52       0.0250
     25 H3         16.8206    9.6591    3.4022 H           1 H52       0.0250
     26 H4         17.8454    8.3021    2.9030 H           1 H52       0.0250
     27 H5         14.1006    8.4360    2.5134 H           1 H52       0.0832
     28 H6         14.0764    8.7799    0.7946 H           1 H52       0.0832
     29 H7         15.0843   10.7288    2.7583 H           1 H52       0.2014
     30 H8         13.4724   10.5303    2.4914 H           1 H52       0.2014
     31 H9         14.4854   12.4065    1.4112 H           1 H52       0.0814
     32 H10        13.4980   11.3634    0.3980 H           1 H52       0.0814
     33 H11        15.8427   12.2834   -0.4520 H           1 H52       0.0333
     34 H12        15.3043   10.6722   -0.9060 H           1 H52       0.0333
     35 H13        17.7510   11.0186   -0.0739 H           1 H52       0.0480
     36 H14        17.0959   11.1040    1.5333 H           1 H52       0.0480
     37 H15        14.3764    6.0708   -1.6479 H           1 H52       0.0421
     38 H16        15.2120    7.4210   -0.9310 H           1 H52       0.0421
     39 H17        16.0535    5.8598   -1.1966 H           1 H52       0.0421
     40 H18        18.0787    9.7210   -5.8886 H           1 H52       0.0643
     41 H19        19.3294   10.8671   -4.1957 H           1 H52       0.0642
     42 H20        19.1241   10.2578   -1.9248 H           1 H52       0.0657
     43 H21        16.4295    8.0935   -6.5572 H           1 H52       0.0786
     44 H22        14.3993    5.7924   -3.9074 H           1 H52       0.0687
@<TRIPOS>BOND
     1     1     2   2
     2     2     3   2
     3     2     4  am
     4     2    12   1
     5     4     5   1
     6     4    11   1
     7     5     6   1
     8     5     7   1
     9     7     8   1
    10     8     9   1
    11     9    10   1
    12    10    11   1
    13    12    13  ar
    14    12    19  ar
    15    13    14  ar
    16    13    16  ar
    17    14    15   1
    18    14    22  ar
    19    16    17  ar
    20    16    20  ar
    21    17    18  ar
    22    18    19  ar
    23    20    21  ar
    24    21    22  ar
    25     5    23   1
    26     6    24   1
    27     6    25   1
    28     6    26   1
    29     7    27   1
    30     7    28   1
    31     8    29   1
    32     8    30   1
    33     9    31   1
    34     9    32   1
    35    10    33   1
    36    10    34   1
    37    11    35   1
    38    11    36   1
    39    15    37   1
    40    15    38   1
    41    15    39   1
    42    17    40   1
    43    18    41   1
    44    19    42   1
    45    20    43   1
    46    22    44   1
@<TRIPOS>SUBSTRUCTURE
     1  H52      5

