@<TRIPOS>MOLECULE
1q8u_ligand_032
    44    46
SMALL
GAST_HUCK
****
This file was generated by PARSER (from files_GN.cpp)

@<TRIPOS>ATOM
      1 O1         17.0654    6.7623   -0.5269 O.2         1 H52      -0.1497
      2 S5         16.7606    8.2910   -0.2116 S.o2        1 H52       0.0732
      3 O2         18.2036    8.9101   -0.4882 O.2         1 H52      -0.1497
      4 N21        16.4559    8.3688    1.4623 N.am        1 H52      -0.2257
      5 C22        17.5242    8.6048    2.4201 C.3         1 H52       0.0778
      6 C2M        17.2331    9.8185    3.3494 C.3         1 H52      -0.0402
      7 C23        17.9016    7.3027    3.1839 C.3         1 H52      -0.0136
      8 N24        16.8221    6.7925    4.0579 N.4         1 H52       0.2284
      9 C25        15.8071    5.9010    3.4544 C.3         1 H52      -0.0321
     10 C26        15.0532    6.4128    2.1900 C.3         1 H52       0.0045
     11 C27        15.1457    7.9352    1.9057 C.3         1 H52       0.0350
     12 C5         15.7962    9.4045   -1.1853 C.ar        1 H52       0.1228
     13 C10        15.5815    9.3770   -2.6110 C.ar        1 H52       0.0294
     14 C4         15.7234    8.2453   -3.4847 C.ar        1 H52      -0.0110
     15 CM         15.7312    6.8227   -3.0665 C.3         1 H52      -0.0231
     16 C9         15.1918   10.6183   -3.2351 C.ar        1 H52       0.0043
     17 C8         14.8708   11.7595   -2.4775 C.ar        1 H52      -0.0481
     18 C7         14.9582   11.7244   -1.0841 C.ar        1 H52      -0.0552
     19 C6         15.4413   10.5702   -0.4564 C.ar        1 H52      -0.0302
     20 C1         15.1367   10.7258   -4.6398 C.ar        1 H52       0.0104
     21 N2         15.4085    9.6567   -5.4143 N.ar        1 H52      -0.3085
     22 C3         15.6932    8.4496   -4.8853 C.ar        1 H52       0.0074
     23 H1         18.4382    8.8901    1.8961 H           1 H52       0.0564
     24 H2         18.1232   10.0736    3.9292 H           1 H52       0.0250
     25 H3         16.4252    9.6131    4.0481 H           1 H52       0.0250
     26 H4         16.9624   10.6896    2.7498 H           1 H52       0.0250
     27 H5         18.7625    7.5049    3.8248 H           1 H52       0.0832
     28 H6         18.2054    6.5359    2.4675 H           1 H52       0.0832
     29 H7         16.3378    7.5907    4.4752 H           1 H52       0.2014
     30 H8         17.2647    6.2697    4.8170 H           1 H52       0.2014
     31 H9         15.0740    5.7146    4.2406 H           1 H52       0.0814
     32 H10        16.2808    4.9418    3.2269 H           1 H52       0.0814
     33 H11        13.9936    6.1551    2.3002 H           1 H52       0.0333
     34 H12        15.4131    5.8673    1.3153 H           1 H52       0.0333
     35 H13        14.3948    8.1813    1.1497 H           1 H52       0.0480
     36 H14        14.8423    8.4740    2.8028 H           1 H52       0.0480
     37 H15        15.2250    6.1830   -3.7969 H           1 H52       0.0421
     38 H16        15.1966    6.6884   -2.1297 H           1 H52       0.0421
     39 H17        16.7642    6.4753   -2.9817 H           1 H52       0.0421
     40 H18        14.5683   12.6324   -2.9250 H           1 H52       0.0643
     41 H19        14.7309   12.5549   -0.5305 H           1 H52       0.0642
     42 H20        15.5797   10.6317    0.5560 H           1 H52       0.0657
     43 H21        14.9004   11.6108   -5.0992 H           1 H52       0.0786
     44 H22        15.8383    7.6746   -5.5378 H           1 H52       0.0687
@<TRIPOS>BOND
     1     1     2   2
     2     2     3   2
     3     2     4  am
     4     2    12   1
     5     4     5   1
     6     4    11   1
     7     5     6   1
     8     5     7   1
     9     7     8   1
    10     8     9   1
    11     9    10   1
    12    10    11   1
    13    12    13  ar
    14    12    19  ar
    15    13    14  ar
    16    13    16  ar
    17    14    15   1
    18    14    22  ar
    19    16    17  ar
    20    16    20  ar
    21    17    18  ar
    22    18    19  ar
    23    20    21  ar
    24    21    22  ar
    25     5    23   1
    26     6    24   1
    27     6    25   1
    28     6    26   1
    29     7    27   1
    30     7    28   1
    31     8    29   1
    32     8    30   1
    33     9    31   1
    34     9    32   1
    35    10    33   1
    36    10    34   1
    37    11    35   1
    38    11    36   1
    39    15    37   1
    40    15    38   1
    41    15    39   1
    42    17    40   1
    43    18    41   1
    44    19    42   1
    45    20    43   1
    46    22    44   1
@<TRIPOS>SUBSTRUCTURE
     1  H52      5

