@<TRIPOS>MOLECULE
1q8u_ligand_058
    44    46
SMALL
GAST_HUCK
****
This file was generated by PARSER (from files_GN.cpp)

@<TRIPOS>ATOM
      1 O1          8.8019   11.2853    1.8791 O.2         1 H52      -0.1497
      2 S5          8.6950   10.3373    3.1482 S.o2        1 H52       0.0732
      3 O2          9.1390   11.4592    4.1894 O.2         1 H52      -0.1497
      4 N21         9.9539    9.1997    3.2802 N.am        1 H52      -0.2257
      5 C22        10.7435    8.8426    2.1165 C.3         1 H52       0.0778
      6 C2M        11.9506    9.8106    1.9803 C.3         1 H52      -0.0402
      7 C23        11.2100    7.3496    2.1092 C.3         1 H52      -0.0136
      8 N24        10.1812    6.3097    2.3617 N.4         1 H52       0.2284
      9 C25         9.1325    6.4887    3.3970 C.3         1 H52      -0.0321
     10 C26         9.5489    7.1838    4.7186 C.3         1 H52       0.0045
     11 C27        10.2032    8.5889    4.5665 C.3         1 H52       0.0350
     12 C5          7.0526    9.8579    3.5617 C.ar        1 H52       0.1228
     13 C10         5.9799    9.5140    2.6560 C.ar        1 H52       0.0294
     14 C4          6.0791    9.1888    1.2564 C.ar        1 H52      -0.0110
     15 CM          7.3301    8.9264    0.4937 C.3         1 H52      -0.0231
     16 C9          4.6592    9.4618    3.2296 C.ar        1 H52       0.0043
     17 C8          4.4317    9.6177    4.6098 C.ar        1 H52      -0.0481
     18 C7          5.5020    9.8237    5.4777 C.ar        1 H52      -0.0552
     19 C6          6.7918    9.9500    4.9544 C.ar        1 H52      -0.0302
     20 C1          3.5288    9.2224    2.4159 C.ar        1 H52       0.0104
     21 N2          3.6826    8.9806    1.1029 N.ar        1 H52      -0.3085
     22 C3          4.8915    8.9550    0.5182 C.ar        1 H52       0.0074
     23 H1         10.1505    8.9804    1.2104 H           1 H52       0.0564
     24 H2         12.5075    9.5955    1.0659 H           1 H52       0.0250
     25 H3         12.6334    9.7258    2.8306 H           1 H52       0.0250
     26 H4         11.6022   10.8440    1.9236 H           1 H52       0.0250
     27 H5         12.0027    7.2031    2.8496 H           1 H52       0.0832
     28 H6         11.6550    7.1253    1.1369 H           1 H52       0.0832
     29 H7         10.6889    5.4599    2.6230 H           1 H52       0.2014
     30 H8          9.6910    6.1194    1.4851 H           1 H52       0.2014
     31 H9          8.7577    5.4905    3.6337 H           1 H52       0.0814
     32 H10         8.2977    7.0384    2.9619 H           1 H52       0.0814
     33 H11        10.2282    6.5230    5.2620 H           1 H52       0.0333
     34 H12         8.6471    7.2842    5.3304 H           1 H52       0.0333
     35 H13         9.8636    9.2229    5.3890 H           1 H52       0.0480
     36 H14        11.2810    8.4969    4.7156 H           1 H52       0.0480
     37 H15         7.1577    8.3966   -0.4433 H           1 H52       0.0421
     38 H16         7.9901    8.2955    1.0794 H           1 H52       0.0421
     39 H17         7.8208    9.8489    0.2205 H           1 H52       0.0421
     40 H18         3.4894    9.5644    5.0094 H           1 H52       0.0643
     41 H19         5.3406    9.9176    6.4861 H           1 H52       0.0642
     42 H20         7.5351   10.1503    5.6274 H           1 H52       0.0657
     43 H21         2.5842    9.2103    2.8031 H           1 H52       0.0786
     44 H22         4.9086    8.7158   -0.4759 H           1 H52       0.0687
@<TRIPOS>BOND
     1     1     2   2
     2     2     3   2
     3     2     4  am
     4     2    12   1
     5     4     5   1
     6     4    11   1
     7     5     6   1
     8     5     7   1
     9     7     8   1
    10     8     9   1
    11     9    10   1
    12    10    11   1
    13    12    13  ar
    14    12    19  ar
    15    13    14  ar
    16    13    16  ar
    17    14    15   1
    18    14    22  ar
    19    16    17  ar
    20    16    20  ar
    21    17    18  ar
    22    18    19  ar
    23    20    21  ar
    24    21    22  ar
    25     5    23   1
    26     6    24   1
    27     6    25   1
    28     6    26   1
    29     7    27   1
    30     7    28   1
    31     8    29   1
    32     8    30   1
    33     9    31   1
    34     9    32   1
    35    10    33   1
    36    10    34   1
    37    11    35   1
    38    11    36   1
    39    15    37   1
    40    15    38   1
    41    15    39   1
    42    17    40   1
    43    18    41   1
    44    19    42   1
    45    20    43   1
    46    22    44   1
@<TRIPOS>SUBSTRUCTURE
     1  H52      5

