@<TRIPOS>MOLECULE
1q8u_ligand_056
    44    46
SMALL
GAST_HUCK
****
This file was generated by PARSER (from files_GN.cpp)

@<TRIPOS>ATOM
      1 O1         15.2467    8.6837   -0.3637 O.2         1 H52      -0.1497
      2 S5         15.0151   10.2486   -0.5474 S.o2        1 H52       0.0732
      3 O2         16.3104   10.8605    0.1463 O.2         1 H52      -0.1497
      4 N21        13.5778   10.5512    0.3153 N.am        1 H52      -0.2257
      5 C22        13.6397   10.7353    1.7587 C.3         1 H52       0.0778
      6 C2M        12.6576   11.7990    2.3306 C.3         1 H52      -0.0402
      7 C23        13.5270    9.3701    2.5044 C.3         1 H52      -0.0136
      8 N24        12.2373    8.6604    2.3521 N.4         1 H52       0.2284
      9 C25        11.8695    8.2198    0.9887 C.3         1 H52      -0.0321
     10 C26        11.2965    9.3791    0.1413 C.3         1 H52       0.0045
     11 C27        12.3183   10.4247   -0.3925 C.3         1 H52       0.0350
     12 C5         15.0013   10.7128   -2.2524 C.ar        1 H52       0.1228
     13 C10        14.6607   12.0059   -2.7988 C.ar        1 H52       0.0294
     14 C4         14.5868   13.2567   -2.0853 C.ar        1 H52      -0.0110
     15 CM         15.1114   13.5006   -0.7166 C.3         1 H52      -0.0231
     16 C9         14.3747   12.0627   -4.2057 C.ar        1 H52       0.0043
     17 C8         14.5421   10.9409   -5.0451 C.ar        1 H52      -0.0481
     18 C7         14.9772    9.7298   -4.5107 C.ar        1 H52      -0.0552
     19 C6         15.1882    9.6172   -3.1353 C.ar        1 H52      -0.0302
     20 C1         13.9221   13.2548   -4.8074 C.ar        1 H52       0.0104
     21 N2         13.7959   14.3736   -4.0699 N.ar        1 H52      -0.3085
     22 C3         14.1125   14.4093   -2.7638 C.ar        1 H52       0.0074
     23 H1         14.6302   11.1277    2.0159 H           1 H52       0.0564
     24 H2         12.8770   11.9869    3.3826 H           1 H52       0.0250
     25 H3         11.6230   11.4729    2.2530 H           1 H52       0.0250
     26 H4         12.7675   12.7361    1.7894 H           1 H52       0.0250
     27 H5         13.6731    9.5389    3.5773 H           1 H52       0.0832
     28 H6         14.3354    8.7038    2.1834 H           1 H52       0.0832
     29 H7         11.4917    9.2594    2.7123 H           1 H52       0.2014
     30 H8         12.2800    7.8266    2.9437 H           1 H52       0.2014
     31 H9         11.0881    7.4691    1.1041 H           1 H52       0.0814
     32 H10        12.7111    7.7404    0.4870 H           1 H52       0.0814
     33 H11        10.5385    9.8935    0.7339 H           1 H52       0.0333
     34 H12        10.7755    8.9450   -0.7149 H           1 H52       0.0333
     35 H13        12.4914   10.1898   -1.4442 H           1 H52       0.0480
     36 H14        11.8455   11.4104   -0.3985 H           1 H52       0.0480
     37 H15        15.0811   14.5519   -0.4182 H           1 H52       0.0421
     38 H16        16.1574   13.1961   -0.6717 H           1 H52       0.0421
     39 H17        14.5291   12.9665    0.0219 H           1 H52       0.0421
     40 H18        14.3615   10.9958   -6.0511 H           1 H52       0.0643
     41 H19        15.1064    8.9172   -5.1207 H           1 H52       0.0642
     42 H20        15.4538    8.6937   -2.7918 H           1 H52       0.0657
     43 H21        13.6946   13.3041   -5.8024 H           1 H52       0.0786
     44 H22        14.0330   15.3138   -2.2944 H           1 H52       0.0687
@<TRIPOS>BOND
     1     1     2   2
     2     2     3   2
     3     2     4  am
     4     2    12   1
     5     4     5   1
     6     4    11   1
     7     5     6   1
     8     5     7   1
     9     7     8   1
    10     8     9   1
    11     9    10   1
    12    10    11   1
    13    12    13  ar
    14    12    19  ar
    15    13    14  ar
    16    13    16  ar
    17    14    15   1
    18    14    22  ar
    19    16    17  ar
    20    16    20  ar
    21    17    18  ar
    22    18    19  ar
    23    20    21  ar
    24    21    22  ar
    25     5    23   1
    26     6    24   1
    27     6    25   1
    28     6    26   1
    29     7    27   1
    30     7    28   1
    31     8    29   1
    32     8    30   1
    33     9    31   1
    34     9    32   1
    35    10    33   1
    36    10    34   1
    37    11    35   1
    38    11    36   1
    39    15    37   1
    40    15    38   1
    41    15    39   1
    42    17    40   1
    43    18    41   1
    44    19    42   1
    45    20    43   1
    46    22    44   1
@<TRIPOS>SUBSTRUCTURE
     1  H52      5

