@<TRIPOS>MOLECULE
1q8u_ligand_076
    44    46
SMALL
GAST_HUCK
****
This file was generated by PARSER (from files_GN.cpp)

@<TRIPOS>ATOM
      1 O1         15.4643   10.8884    6.0901 O.2         1 H52      -0.1497
      2 S5         16.8882   10.2117    5.8748 S.o2        1 H52       0.0732
      3 O2         16.7899    8.6909    6.3252 O.2         1 H52      -0.1497
      4 N21        17.9487   10.9251    7.0218 N.am        1 H52      -0.2257
      5 C22        17.4676   11.1331    8.3898 C.3         1 H52       0.0778
      6 C2M        17.4493    9.8042    9.2018 C.3         1 H52      -0.0402
      7 C23        18.2169   12.2141    9.2326 C.3         1 H52      -0.0136
      8 N24        18.5401   13.4389    8.4698 N.4         1 H52       0.2284
      9 C25        19.8388   13.4110    7.7610 C.3         1 H52      -0.0321
     10 C26        19.8354   12.5045    6.5091 C.3         1 H52       0.0045
     11 C27        19.3604   11.0365    6.7224 C.3         1 H52       0.0350
     12 C5         17.2030   10.1981    4.1322 C.ar        1 H52       0.1228
     13 C10        16.9706    9.0858    3.2567 C.ar        1 H52       0.0294
     14 C4         15.9882    8.0569    3.4274 C.ar        1 H52      -0.0110
     15 CM         14.7504    8.1857    4.2463 C.3         1 H52      -0.0231
     16 C9         17.7785    9.0052    2.0676 C.ar        1 H52       0.0043
     17 C8         18.6004   10.0776    1.6753 C.ar        1 H52      -0.0481
     18 C7         18.6145   11.2592    2.4204 C.ar        1 H52      -0.0552
     19 C6         17.9130   11.3118    3.6345 C.ar        1 H52      -0.0302
     20 C1         17.7432    7.8488    1.2625 C.ar        1 H52       0.0104
     21 N2         16.9001    6.8368    1.5582 N.ar        1 H52      -0.3085
     22 C3         16.0373    6.9142    2.5961 C.ar        1 H52       0.0074
     23 H1         16.4345   11.4893    8.3366 H           1 H52       0.0564
     24 H2         17.2294    9.9881   10.2567 H           1 H52       0.0250
     25 H3         18.4172    9.3044    9.1358 H           1 H52       0.0250
     26 H4         16.6834    9.1312    8.8244 H           1 H52       0.0250
     27 H5         19.1237   11.7955    9.6838 H           1 H52       0.0832
     28 H6         17.5722   12.5207   10.0629 H           1 H52       0.0832
     29 H7         18.5690   14.2176    9.1316 H           1 H52       0.2014
     30 H8         17.7892   13.6169    7.7980 H           1 H52       0.2014
     31 H9         20.6425   13.1088    8.4399 H           1 H52       0.0814
     32 H10        20.0527   14.4339    7.4405 H           1 H52       0.0814
     33 H11        20.8553   12.4779    6.1097 H           1 H52       0.0333
     34 H12        19.2063   13.0010    5.7716 H           1 H52       0.0333
     35 H13        19.6141   10.4688    5.8217 H           1 H52       0.0480
     36 H14        19.9501   10.5850    7.5260 H           1 H52       0.0480
     37 H15        13.8810    7.8469    3.6765 H           1 H52       0.0421
     38 H16        14.5525    9.2217    4.5040 H           1 H52       0.0421
     39 H17        14.8253    7.5731    5.1462 H           1 H52       0.0421
     40 H18        19.1631   10.0314    0.8202 H           1 H52       0.0643
     41 H19        19.1632   12.0639    2.1101 H           1 H52       0.0642
     42 H20        17.9522   12.1776    4.1670 H           1 H52       0.0657
     43 H21        18.3306    7.7664    0.4315 H           1 H52       0.0786
     44 H22        15.3707    6.1470    2.7125 H           1 H52       0.0687
@<TRIPOS>BOND
     1     1     2   2
     2     2     3   2
     3     2     4  am
     4     2    12   1
     5     4     5   1
     6     4    11   1
     7     5     6   1
     8     5     7   1
     9     7     8   1
    10     8     9   1
    11     9    10   1
    12    10    11   1
    13    12    13  ar
    14    12    19  ar
    15    13    14  ar
    16    13    16  ar
    17    14    15   1
    18    14    22  ar
    19    16    17  ar
    20    16    20  ar
    21    17    18  ar
    22    18    19  ar
    23    20    21  ar
    24    21    22  ar
    25     5    23   1
    26     6    24   1
    27     6    25   1
    28     6    26   1
    29     7    27   1
    30     7    28   1
    31     8    29   1
    32     8    30   1
    33     9    31   1
    34     9    32   1
    35    10    33   1
    36    10    34   1
    37    11    35   1
    38    11    36   1
    39    15    37   1
    40    15    38   1
    41    15    39   1
    42    17    40   1
    43    18    41   1
    44    19    42   1
    45    20    43   1
    46    22    44   1
@<TRIPOS>SUBSTRUCTURE
     1  H52      5

