@<TRIPOS>MOLECULE
1q8u_ligand_065
    44    46
SMALL
GAST_HUCK
****
This file was generated by PARSER (from files_GN.cpp)

@<TRIPOS>ATOM
      1 O1         11.5247   11.6924    2.8523 O.2         1 H52      -0.1497
      2 S5         11.1280   10.2632    3.4176 S.o2        1 H52       0.0732
      3 O2         12.4426    9.3744    3.4233 O.2         1 H52      -0.1497
      4 N21        10.0550    9.4576    2.3717 N.am        1 H52      -0.2257
      5 C22         9.3477    8.2892    2.8794 C.3         1 H52       0.0778
      6 C2M         7.9077    8.1201    2.3235 C.3         1 H52      -0.0402
      7 C23        10.2014    6.9917    2.7560 C.3         1 H52      -0.0136
      8 N24        10.5706    6.5932    1.3810 N.4         1 H52       0.2284
      9 C25        11.3592    7.5533    0.5822 C.3         1 H52      -0.0321
     10 C26        10.4786    8.6697   -0.0301 C.3         1 H52       0.0045
     11 C27        10.0533    9.7974    0.9588 C.3         1 H52       0.0350
     12 C5         10.3466   10.6166    4.9527 C.ar        1 H52       0.1228
     13 C10        10.7516   10.1171    6.2321 C.ar        1 H52       0.0294
     14 C4         12.0883    9.7703    6.6138 C.ar        1 H52      -0.0110
     15 CM         13.3346   10.2483    5.9575 C.3         1 H52      -0.0231
     16 C9          9.7277    9.9658    7.2242 C.ar        1 H52       0.0043
     17 C8          8.4323   10.4860    7.0199 C.ar        1 H52      -0.0481
     18 C7          8.1208   11.1530    5.8305 C.ar        1 H52      -0.0552
     19 C6          9.0631   11.1941    4.7967 C.ar        1 H52      -0.0302
     20 C1         10.0179    9.3077    8.4376 C.ar        1 H52       0.0104
     21 N2         11.2681    8.8726    8.6927 N.ar        1 H52      -0.3085
     22 C3         12.2883    9.0814    7.8330 C.ar        1 H52       0.0074
     23 H1          9.1901    8.4142    3.9553 H           1 H52       0.0564
     24 H2          7.3965    7.3007    2.8331 H           1 H52       0.0250
     25 H3          7.9157    7.9039    1.2569 H           1 H52       0.0250
     26 H4          7.3368    9.0351    2.4890 H           1 H52       0.0250
     27 H5          9.6424    6.1574    3.1877 H           1 H52       0.0832
     28 H6         11.1156    7.0921    3.3436 H           1 H52       0.0832
     29 H7          9.7145    6.3586    0.8737 H           1 H52       0.2014
     30 H8         11.1370    5.7424    1.4535 H           1 H52       0.2014
     31 H9         11.8048    6.9783   -0.2321 H           1 H52       0.0814
     32 H10        12.1821    7.9757    1.1599 H           1 H52       0.0814
     33 H11         9.5889    8.2084   -0.4663 H           1 H52       0.0333
     34 H12        11.0294    9.1244   -0.8587 H           1 H52       0.0333
     35 H13        10.7028   10.6527    0.7602 H           1 H52       0.0480
     36 H14         9.0478   10.1326    0.6958 H           1 H52       0.0480
     37 H15        14.0134   10.6794    6.6965 H           1 H52       0.0421
     38 H16        13.1458   11.0312    5.2286 H           1 H52       0.0421
     39 H17        13.8519    9.4099    5.4849 H           1 H52       0.0421
     40 H18         7.7134   10.4147    7.7462 H           1 H52       0.0643
     41 H19         7.1887   11.5490    5.6925 H           1 H52       0.0642
     42 H20         8.7703   11.5934    3.9012 H           1 H52       0.0657
     43 H21         9.3016    9.1597    9.1498 H           1 H52       0.0786
     44 H22        13.2222    8.7818    8.1213 H           1 H52       0.0687
@<TRIPOS>BOND
     1     1     2   2
     2     2     3   2
     3     2     4  am
     4     2    12   1
     5     4     5   1
     6     4    11   1
     7     5     6   1
     8     5     7   1
     9     7     8   1
    10     8     9   1
    11     9    10   1
    12    10    11   1
    13    12    13  ar
    14    12    19  ar
    15    13    14  ar
    16    13    16  ar
    17    14    15   1
    18    14    22  ar
    19    16    17  ar
    20    16    20  ar
    21    17    18  ar
    22    18    19  ar
    23    20    21  ar
    24    21    22  ar
    25     5    23   1
    26     6    24   1
    27     6    25   1
    28     6    26   1
    29     7    27   1
    30     7    28   1
    31     8    29   1
    32     8    30   1
    33     9    31   1
    34     9    32   1
    35    10    33   1
    36    10    34   1
    37    11    35   1
    38    11    36   1
    39    15    37   1
    40    15    38   1
    41    15    39   1
    42    17    40   1
    43    18    41   1
    44    19    42   1
    45    20    43   1
    46    22    44   1
@<TRIPOS>SUBSTRUCTURE
     1  H52      5

