@<TRIPOS>MOLECULE
1q8u_ligand_041
    44    46
SMALL
GAST_HUCK
****
This file was generated by PARSER (from files_GN.cpp)

@<TRIPOS>ATOM
      1 O1         19.5113    9.3095    0.4824 O.2         1 H52      -0.1497
      2 S5         18.1059    9.9380    0.0780 S.o2        1 H52       0.0732
      3 O2         18.4496   11.4303    0.4979 O.2         1 H52      -0.1497
      4 N21        17.0348    9.1507    1.1461 N.am        1 H52      -0.2257
      5 C22        16.9020    7.7082    1.0479 C.3         1 H52       0.0778
      6 C2M        16.9287    6.9479    2.4075 C.3         1 H52      -0.0402
      7 C23        15.6604    7.3461    0.1836 C.3         1 H52      -0.0136
      8 N24        14.3446    7.7574    0.7198 N.4         1 H52       0.2284
      9 C25        14.1046    9.2006    0.9393 C.3         1 H52      -0.0321
     10 C26        14.7823    9.7601    2.2116 C.3         1 H52       0.0045
     11 C27        16.3347    9.9091    2.1608 C.3         1 H52       0.0350
     12 C5         17.8158    9.7921   -1.6572 C.ar        1 H52       0.1228
     13 C10        16.6295   10.2121   -2.3652 C.ar        1 H52       0.0294
     14 C4         15.6678   11.1861   -1.9338 C.ar        1 H52      -0.0110
     15 CM         15.9019   12.2025   -0.8714 C.3         1 H52      -0.0231
     16 C9         16.3934    9.6074   -3.6483 C.ar        1 H52       0.0043
     17 C8         17.3603    8.7917   -4.2725 C.ar        1 H52      -0.0481
     18 C7         18.5727    8.5391   -3.6334 C.ar        1 H52      -0.0552
     19 C6         18.7791    9.0070   -2.3354 C.ar        1 H52      -0.0302
     20 C1         15.1756    9.8252   -4.3282 C.ar        1 H52       0.0104
     21 N2         14.2540   10.6638   -3.8138 N.ar        1 H52      -0.3085
     22 C3         14.4662   11.3428   -2.6680 C.ar        1 H52       0.0074
     23 H1         17.7624    7.3044    0.5040 H           1 H52       0.0564
     24 H2         16.9567    5.8703    2.2425 H           1 H52       0.0250
     25 H3         16.0455    7.1722    3.0065 H           1 H52       0.0250
     26 H4         17.8197    7.2277    2.9728 H           1 H52       0.0250
     27 H5         15.6284    6.2622    0.0508 H           1 H52       0.0832
     28 H6         15.7778    7.7787   -0.8124 H           1 H52       0.0832
     29 H7         14.1595    7.2471    1.5859 H           1 H52       0.2014
     30 H8         13.6620    7.4675    0.0178 H           1 H52       0.2014
     31 H9         13.0233    9.3233    1.0493 H           1 H52       0.0814
     32 H10        14.4055    9.7730    0.0617 H           1 H52       0.0814
     33 H11        14.5002    9.1290    3.0566 H           1 H52       0.0333
     34 H12        14.3503   10.7446    2.4038 H           1 H52       0.0333
     35 H13        16.5540   10.9727    2.0751 H           1 H52       0.0480
     36 H14        16.7445    9.6169    3.1337 H           1 H52       0.0480
     37 H15        15.1564   13.0038   -0.8646 H           1 H52       0.0421
     38 H16        16.8627   12.6838   -1.0594 H           1 H52       0.0421
     39 H17        15.8839   11.7448    0.1142 H           1 H52       0.0421
     40 H18        17.1930    8.3906   -5.2020 H           1 H52       0.0643
     41 H19        19.2776    7.9637   -4.0943 H           1 H52       0.0642
     42 H20        19.6477    8.7182   -1.8846 H           1 H52       0.0657
     43 H21        14.9676    9.3673   -5.2191 H           1 H52       0.0786
     44 H22        13.7463   12.0008   -2.3750 H           1 H52       0.0687
@<TRIPOS>BOND
     1     1     2   2
     2     2     3   2
     3     2     4  am
     4     2    12   1
     5     4     5   1
     6     4    11   1
     7     5     6   1
     8     5     7   1
     9     7     8   1
    10     8     9   1
    11     9    10   1
    12    10    11   1
    13    12    13  ar
    14    12    19  ar
    15    13    14  ar
    16    13    16  ar
    17    14    15   1
    18    14    22  ar
    19    16    17  ar
    20    16    20  ar
    21    17    18  ar
    22    18    19  ar
    23    20    21  ar
    24    21    22  ar
    25     5    23   1
    26     6    24   1
    27     6    25   1
    28     6    26   1
    29     7    27   1
    30     7    28   1
    31     8    29   1
    32     8    30   1
    33     9    31   1
    34     9    32   1
    35    10    33   1
    36    10    34   1
    37    11    35   1
    38    11    36   1
    39    15    37   1
    40    15    38   1
    41    15    39   1
    42    17    40   1
    43    18    41   1
    44    19    42   1
    45    20    43   1
    46    22    44   1
@<TRIPOS>SUBSTRUCTURE
     1  H52      5

