@<TRIPOS>MOLECULE
1q8u_ligand_021
    44    46
SMALL
GAST_HUCK
****
This file was generated by PARSER (from files_GN.cpp)

@<TRIPOS>ATOM
      1 O1         16.3367    9.1052    0.0852 O.2         1 H52      -0.1497
      2 S5         17.3629    8.7521    1.2486 S.o2        1 H52       0.0732
      3 O2         18.1937    7.5408    0.6367 O.2         1 H52      -0.1497
      4 N21        16.4184    8.1550    2.5387 N.am        1 H52      -0.2257
      5 C22        16.8171    6.9211    3.2063 C.3         1 H52       0.0778
      6 C2M        18.0243    7.1706    4.1556 C.3         1 H52      -0.0402
      7 C23        15.6949    6.1175    3.9386 C.3         1 H52      -0.0136
      8 N24        15.1944    6.7398    5.1857 N.4         1 H52       0.2284
      9 C25        14.2349    7.8500    5.0348 C.3         1 H52      -0.0321
     10 C26        14.8226    9.0712    4.2883 C.3         1 H52       0.0045
     11 C27        15.1452    8.8020    2.7921 C.3         1 H52       0.0350
     12 C5         18.4437   10.1044    1.5669 C.ar        1 H52       0.1228
     13 C10        19.6844   10.3709    0.8910 C.ar        1 H52       0.0294
     14 C4         20.0664    9.8907   -0.4062 C.ar        1 H52      -0.0110
     15 CM         19.1262    9.5052   -1.4909 C.3         1 H52      -0.0231
     16 C9         20.6471   11.1807    1.5820 C.ar        1 H52       0.0043
     17 C8         20.3071   11.8699    2.7646 C.ar        1 H52      -0.0481
     18 C7         19.0324   11.7254    3.3179 C.ar        1 H52      -0.0552
     19 C6         18.1254   10.8277    2.7414 C.ar        1 H52      -0.0302
     20 C1         21.9648   11.2931    1.0908 C.ar        1 H52       0.0104
     21 N2         22.3149   10.6751   -0.0538 N.ar        1 H52      -0.3085
     22 C3         21.4238    9.9928   -0.8020 C.ar        1 H52       0.0074
     23 H1         17.1698    6.2266    2.4390 H           1 H52       0.0564
     24 H2         18.2764    6.2651    4.7177 H           1 H52       0.0250
     25 H3         17.8020    7.9675    4.8712 H           1 H52       0.0250
     26 H4         18.9051    7.4577    3.5772 H           1 H52       0.0250
     27 H5         16.0981    5.1433    4.2230 H           1 H52       0.0832
     28 H6         14.8665    5.9236    3.2537 H           1 H52       0.0832
     29 H7         15.9921    7.0738    5.7324 H           1 H52       0.2014
     30 H8         14.7293    6.0103    5.7324 H           1 H52       0.2014
     31 H9         13.9429    8.1669    6.0386 H           1 H52       0.0814
     32 H10        13.3338    7.4983    4.5280 H           1 H52       0.0814
     33 H11        15.7256    9.4145    4.8050 H           1 H52       0.0333
     34 H12        14.0877    9.8826    4.3488 H           1 H52       0.0333
     35 H13        14.3513    8.2003    2.3451 H           1 H52       0.0480
     36 H14        15.1030    9.7744    2.2953 H           1 H52       0.0480
     37 H15        19.4640    9.8829   -2.4600 H           1 H52       0.0421
     38 H16        18.1460    9.9479   -1.3375 H           1 H52       0.0421
     39 H17        19.0477    8.4212   -1.5661 H           1 H52       0.0421
     40 H18        20.9821   12.4826    3.2327 H           1 H52       0.0643
     41 H19        18.7857   12.2276    4.1768 H           1 H52       0.0642
     42 H20        17.2384   10.6837    3.2263 H           1 H52       0.0657
     43 H21        22.6808   11.8246    1.5924 H           1 H52       0.0786
     44 H22        21.7453    9.6128   -1.6959 H           1 H52       0.0687
@<TRIPOS>BOND
     1     1     2   2
     2     2     3   2
     3     2     4  am
     4     2    12   1
     5     4     5   1
     6     4    11   1
     7     5     6   1
     8     5     7   1
     9     7     8   1
    10     8     9   1
    11     9    10   1
    12    10    11   1
    13    12    13  ar
    14    12    19  ar
    15    13    14  ar
    16    13    16  ar
    17    14    15   1
    18    14    22  ar
    19    16    17  ar
    20    16    20  ar
    21    17    18  ar
    22    18    19  ar
    23    20    21  ar
    24    21    22  ar
    25     5    23   1
    26     6    24   1
    27     6    25   1
    28     6    26   1
    29     7    27   1
    30     7    28   1
    31     8    29   1
    32     8    30   1
    33     9    31   1
    34     9    32   1
    35    10    33   1
    36    10    34   1
    37    11    35   1
    38    11    36   1
    39    15    37   1
    40    15    38   1
    41    15    39   1
    42    17    40   1
    43    18    41   1
    44    19    42   1
    45    20    43   1
    46    22    44   1
@<TRIPOS>SUBSTRUCTURE
     1  H52      5

