@<TRIPOS>MOLECULE
1q8u_ligand_072
    44    46
SMALL
GAST_HUCK
****
This file was generated by PARSER (from files_GN.cpp)

@<TRIPOS>ATOM
      1 O1          7.3906    8.1237    4.5526 O.2         1 H52      -0.1497
      2 S5          8.0921    9.3807    3.8716 S.o2        1 H52       0.0732
      3 O2          7.6090   10.6192    4.7425 O.2         1 H52      -0.1497
      4 N21         7.3997    9.6407    2.3352 N.am        1 H52      -0.2257
      5 C22         7.5177   10.9524    1.7154 C.3         1 H52       0.0778
      6 C2M         8.2403   10.9062    0.3402 C.3         1 H52      -0.0402
      7 C23         6.1582   11.7099    1.6342 C.3         1 H52      -0.0136
      8 N24         5.1753   11.0593    0.7402 N.4         1 H52       0.2284
      9 C25         4.3294    9.9858    1.3048 C.3         1 H52      -0.0321
     10 C26         5.0428    8.8950    2.1503 C.3         1 H52       0.0045
     11 C27         6.5264    8.6305    1.7786 C.3         1 H52       0.0350
     12 C5          9.8465    9.2240    3.8978 C.ar        1 H52       0.1228
     13 C10        10.7182    9.4931    5.0114 C.ar        1 H52       0.0294
     14 C4         10.3630    9.4587    6.4037 C.ar        1 H52      -0.0110
     15 CM          9.1473    8.7963    6.9523 C.3         1 H52      -0.0231
     16 C9         12.0863    9.8001    4.7064 C.ar        1 H52       0.0043
     17 C8         12.5913    9.6906    3.3947 C.ar        1 H52      -0.0481
     18 C7         11.7633    9.2413    2.3625 C.ar        1 H52      -0.0552
     19 C6         10.4077    9.0133    2.6149 C.ar        1 H52      -0.0302
     20 C1         12.9688   10.2093    5.7281 C.ar        1 H52       0.0104
     21 N2         12.5524   10.2545    7.0085 N.ar        1 H52      -0.3085
     22 C3         11.3054    9.8938    7.3655 C.ar        1 H52       0.0074
     23 H1          8.1614   11.5817    2.3365 H           1 H52       0.0564
     24 H2          8.3856   11.9182   -0.0480 H           1 H52       0.0250
     25 H3          7.6718   10.3437   -0.4004 H           1 H52       0.0250
     26 H4          9.2213   10.4425    0.4454 H           1 H52       0.0250
     27 H5          6.3375   12.7101    1.2272 H           1 H52       0.0832
     28 H6          5.7354   11.8435    2.6336 H           1 H52       0.0832
     29 H7          5.6800   10.6739   -0.0582 H           1 H52       0.2014
     30 H8          4.5451   11.7843    0.3884 H           1 H52       0.2014
     31 H9          3.8425    9.5044    0.4548 H           1 H52       0.0814
     32 H10         3.5431   10.4463    1.9073 H           1 H52       0.0814
     33 H11         4.4823    7.9620    2.0359 H           1 H52       0.0333
     34 H12         4.9869    9.1715    3.2076 H           1 H52       0.0333
     35 H13         6.8114    7.6382    2.1407 H           1 H52       0.0480
     36 H14         6.6214    8.5820    0.6947 H           1 H52       0.0480
     37 H15         9.2611    8.5064    8.0037 H           1 H52       0.0421
     38 H16         8.9497    7.8710    6.4094 H           1 H52       0.0421
     39 H17         8.2820    9.4585    6.9043 H           1 H52       0.0421
     40 H18        13.5699    9.9082    3.1830 H           1 H52       0.0643
     41 H19        12.1373    9.1310    1.4181 H           1 H52       0.0642
     42 H20         9.8245    8.7370    1.8240 H           1 H52       0.0657
     43 H21        13.9412   10.4644    5.5276 H           1 H52       0.0786
     44 H22        11.0834    9.9053    8.3660 H           1 H52       0.0687
@<TRIPOS>BOND
     1     1     2   2
     2     2     3   2
     3     2     4  am
     4     2    12   1
     5     4     5   1
     6     4    11   1
     7     5     6   1
     8     5     7   1
     9     7     8   1
    10     8     9   1
    11     9    10   1
    12    10    11   1
    13    12    13  ar
    14    12    19  ar
    15    13    14  ar
    16    13    16  ar
    17    14    15   1
    18    14    22  ar
    19    16    17  ar
    20    16    20  ar
    21    17    18  ar
    22    18    19  ar
    23    20    21  ar
    24    21    22  ar
    25     5    23   1
    26     6    24   1
    27     6    25   1
    28     6    26   1
    29     7    27   1
    30     7    28   1
    31     8    29   1
    32     8    30   1
    33     9    31   1
    34     9    32   1
    35    10    33   1
    36    10    34   1
    37    11    35   1
    38    11    36   1
    39    15    37   1
    40    15    38   1
    41    15    39   1
    42    17    40   1
    43    18    41   1
    44    19    42   1
    45    20    43   1
    46    22    44   1
@<TRIPOS>SUBSTRUCTURE
     1  H52      5

