@<TRIPOS>MOLECULE
1q8u_ligand_049
    44    46
SMALL
GAST_HUCK
****
This file was generated by PARSER (from files_GN.cpp)

@<TRIPOS>ATOM
      1 O1         17.2307   11.2543   -0.5079 O.2         1 H52      -0.1497
      2 S5         15.9741   11.7804   -1.3263 S.o2        1 H52       0.0732
      3 O2         16.5382   13.2450   -1.6220 O.2         1 H52      -0.1497
      4 N21        14.6298   11.9507   -0.2938 N.am        1 H52      -0.2257
      5 C22        13.8561   10.7562    0.0055 C.3         1 H52       0.0778
      6 C2M        14.2900   10.1373    1.3597 C.3         1 H52      -0.0402
      7 C23        12.3178   10.9442   -0.1046 C.3         1 H52      -0.0136
      8 N24        11.7583   11.8986    0.8750 N.4         1 H52       0.2284
      9 C25        11.7656   13.3320    0.5076 C.3         1 H52      -0.0321
     10 C26        13.0674   13.8884   -0.1249 C.3         1 H52       0.0045
     11 C27        14.3588   13.2026    0.3836 C.3         1 H52       0.0350
     12 C5         15.5631   11.2185   -2.9434 C.ar        1 H52       0.1228
     13 C10        15.9739   10.0256   -3.6505 C.ar        1 H52       0.0294
     14 C4         16.6723    8.8827   -3.1167 C.ar        1 H52      -0.0110
     15 CM         17.0261    8.6382   -1.6965 C.3         1 H52      -0.0231
     16 C9         15.6488    9.9721   -5.0548 C.ar        1 H52       0.0043
     17 C8         14.8826   10.9726   -5.6884 C.ar        1 H52      -0.0481
     18 C7         14.3758   12.0375   -4.9456 C.ar        1 H52      -0.0552
     19 C6         14.7098   12.1516   -3.5943 C.ar        1 H52      -0.0302
     20 C1         16.0799    8.8954   -5.8546 C.ar        1 H52       0.0104
     21 N2         16.7649    7.8779   -5.3133 N.ar        1 H52      -0.3085
     22 C3         17.0551    7.8380   -4.0008 C.ar        1 H52       0.0074
     23 H1         14.0759    9.9912   -0.7499 H           1 H52       0.0564
     24 H2         13.7992    9.1699    1.5095 H           1 H52       0.0250
     25 H3         14.0303   10.7833    2.1979 H           1 H52       0.0250
     26 H4         15.3693    9.9719    1.3780 H           1 H52       0.0250
     27 H5         11.8361    9.9779    0.0754 H           1 H52       0.0832
     28 H6         12.0510   11.2407   -1.1209 H           1 H52       0.0832
     29 H7         12.2677   11.7957    1.7555 H           1 H52       0.2014
     30 H8         10.7837   11.6350    1.0474 H           1 H52       0.2014
     31 H9         11.5645   13.8907    1.4231 H           1 H52       0.0814
     32 H10        10.9277   13.5171   -0.1716 H           1 H52       0.0814
     33 H11        13.1222   14.9601    0.0899 H           1 H52       0.0333
     34 H12        13.0088   13.7957   -1.2098 H           1 H52       0.0333
     35 H13        15.1780   13.9154    0.2655 H           1 H52       0.0480
     36 H14        14.2771   13.0359    1.4566 H           1 H52       0.0480
     37 H15        17.1833    7.5782   -1.4789 H           1 H52       0.0421
     38 H16        16.2217    8.9562   -1.0359 H           1 H52       0.0421
     39 H17        17.9579    9.1487   -1.4683 H           1 H52       0.0421
     40 H18        14.6491   10.9162   -6.6833 H           1 H52       0.0643
     41 H19        13.7963   12.7499   -5.3955 H           1 H52       0.0642
     42 H20        14.3564   12.9807   -3.1100 H           1 H52       0.0657
     43 H21        15.8957    8.8620   -6.8631 H           1 H52       0.0786
     44 H22        17.5668    7.0190   -3.6664 H           1 H52       0.0687
@<TRIPOS>BOND
     1     1     2   2
     2     2     3   2
     3     2     4  am
     4     2    12   1
     5     4     5   1
     6     4    11   1
     7     5     6   1
     8     5     7   1
     9     7     8   1
    10     8     9   1
    11     9    10   1
    12    10    11   1
    13    12    13  ar
    14    12    19  ar
    15    13    14  ar
    16    13    16  ar
    17    14    15   1
    18    14    22  ar
    19    16    17  ar
    20    16    20  ar
    21    17    18  ar
    22    18    19  ar
    23    20    21  ar
    24    21    22  ar
    25     5    23   1
    26     6    24   1
    27     6    25   1
    28     6    26   1
    29     7    27   1
    30     7    28   1
    31     8    29   1
    32     8    30   1
    33     9    31   1
    34     9    32   1
    35    10    33   1
    36    10    34   1
    37    11    35   1
    38    11    36   1
    39    15    37   1
    40    15    38   1
    41    15    39   1
    42    17    40   1
    43    18    41   1
    44    19    42   1
    45    20    43   1
    46    22    44   1
@<TRIPOS>SUBSTRUCTURE
     1  H52      5

