@<TRIPOS>MOLECULE
1q8u_ligand_015
    44    46
SMALL
GAST_HUCK
****
This file was generated by PARSER (from files_GN.cpp)

@<TRIPOS>ATOM
      1 O1          5.8420   11.5768    3.6352 O.2         1 H52      -0.1497
      2 S5          6.8701   10.3671    3.5481 S.o2        1 H52       0.0732
      3 O2          5.8965    9.1564    3.8916 O.2         1 H52      -0.1497
      4 N21         7.9755   10.7717    4.7785 N.am        1 H52      -0.2257
      5 C22         7.7591   10.4501    6.1832 C.3         1 H52       0.0778
      6 C2M         6.3114   10.6338    6.7197 C.3         1 H52      -0.0402
      7 C23         8.3495    9.0550    6.5357 C.3         1 H52      -0.0136
      8 N24         9.6311    8.7095    5.8739 N.4         1 H52       0.2284
      9 C25        10.6722    9.7560    5.7699 C.3         1 H52      -0.0321
     10 C26        10.4863   10.6079    4.4876 C.3         1 H52       0.0045
     11 C27         9.1981   11.4765    4.4301 C.3         1 H52       0.0350
     12 C5          7.5588   10.2550    1.9224 C.ar        1 H52       0.1228
     13 C10         8.5874    9.3293    1.5228 C.ar        1 H52       0.0294
     14 C4          8.8485    8.0404    2.1024 C.ar        1 H52      -0.0110
     15 CM          7.8346    7.2511    2.8533 C.3         1 H52      -0.0231
     16 C9          9.4539    9.7321    0.4497 C.ar        1 H52       0.0043
     17 C8          9.1794   10.8846   -0.3148 C.ar        1 H52      -0.0481
     18 C7          8.0539   11.6642   -0.0322 C.ar        1 H52      -0.0552
     19 C6          7.2628   11.3579    1.0880 C.ar        1 H52      -0.0302
     20 C1         10.6095    8.9838    0.1437 C.ar        1 H52       0.0104
     21 N2         10.8747    7.8445    0.8151 N.ar        1 H52      -0.3085
     22 C3         10.0367    7.3580    1.7532 C.ar        1 H52       0.0074
     23 H1          8.3323   11.1674    6.7840 H           1 H52       0.0564
     24 H2          6.3101   10.6279    7.8136 H           1 H52       0.0250
     25 H3          5.6524    9.8392    6.3660 H           1 H52       0.0250
     26 H4          5.9181   11.5951    6.3895 H           1 H52       0.0250
     27 H5          7.6327    8.2763    6.2742 H           1 H52       0.0832
     28 H6          8.5141    8.9985    7.6141 H           1 H52       0.0832
     29 H7          9.4286    8.3815    4.9274 H           1 H52       0.2014
     30 H8         10.0309    7.9239    6.3877 H           1 H52       0.2014
     31 H9         11.6347    9.2471    5.7001 H           1 H52       0.0814
     32 H10        10.6928   10.3889    6.6591 H           1 H52       0.0814
     33 H11        10.4988    9.9362    3.6220 H           1 H52       0.0333
     34 H12        11.3520   11.2755    4.3926 H           1 H52       0.0333
     35 H13         9.3301   12.3383    5.0943 H           1 H52       0.0480
     36 H14         9.1377   11.8960    3.4253 H           1 H52       0.0480
     37 H15         8.0673    6.1772    2.8727 H           1 H52       0.0421
     38 H16         6.8582    7.3552    2.3671 H           1 H52       0.0421
     39 H17         7.7812    7.5835    3.8877 H           1 H52       0.0421
     40 H18         9.7827   11.1618   -1.0971 H           1 H52       0.0643
     41 H19         7.8477   12.4918   -0.5978 H           1 H52       0.0642
     42 H20         6.5076   12.0083    1.3157 H           1 H52       0.0657
     43 H21        11.2598    9.2772   -0.5915 H           1 H52       0.0786
     44 H22        10.2796    6.4613    2.1748 H           1 H52       0.0687
@<TRIPOS>BOND
     1     1     2   2
     2     2     3   2
     3     2     4  am
     4     2    12   1
     5     4     5   1
     6     4    11   1
     7     5     6   1
     8     5     7   1
     9     7     8   1
    10     8     9   1
    11     9    10   1
    12    10    11   1
    13    12    13  ar
    14    12    19  ar
    15    13    14  ar
    16    13    16  ar
    17    14    15   1
    18    14    22  ar
    19    16    17  ar
    20    16    20  ar
    21    17    18  ar
    22    18    19  ar
    23    20    21  ar
    24    21    22  ar
    25     5    23   1
    26     6    24   1
    27     6    25   1
    28     6    26   1
    29     7    27   1
    30     7    28   1
    31     8    29   1
    32     8    30   1
    33     9    31   1
    34     9    32   1
    35    10    33   1
    36    10    34   1
    37    11    35   1
    38    11    36   1
    39    15    37   1
    40    15    38   1
    41    15    39   1
    42    17    40   1
    43    18    41   1
    44    19    42   1
    45    20    43   1
    46    22    44   1
@<TRIPOS>SUBSTRUCTURE
     1  H52      5

