@<TRIPOS>MOLECULE
1q8u_ligand_024
    44    46
SMALL
GAST_HUCK
****
This file was generated by PARSER (from files_GN.cpp)

@<TRIPOS>ATOM
      1 O1          9.4044   10.6770    4.6874 O.2         1 H52      -0.1497
      2 S5          8.8462    9.2493    4.2716 S.o2        1 H52       0.0732
      3 O2          8.5992    8.4424    5.6176 O.2         1 H52      -0.1497
      4 N21        10.0387    8.3129    3.4857 N.am        1 H52      -0.2257
      5 C22        11.3631    8.8554    3.2139 C.3         1 H52       0.0778
      6 C2M        12.5039    8.1197    3.9687 C.3         1 H52      -0.0402
      7 C23        11.6509    8.9843    1.6891 C.3         1 H52      -0.0136
      8 N24        11.8063    7.7144    0.9489 N.4         1 H52       0.2284
      9 C25        10.6181    6.8413    0.8524 C.3         1 H52      -0.0321
     10 C26        10.3523    6.0799    2.1694 C.3         1 H52       0.0045
     11 C27         9.7261    6.9014    3.3336 C.3         1 H52       0.0350
     12 C5          7.3663    9.4561    3.3335 C.ar        1 H52       0.1228
     13 C10         6.0206    9.6713    3.8138 C.ar        1 H52       0.0294
     14 C4          5.6293   10.1277    5.1236 C.ar        1 H52      -0.0110
     15 CM          6.5386   10.7390    6.1407 C.3         1 H52      -0.0231
     16 C9          4.9542    9.4325    2.8799 C.ar        1 H52       0.0043
     17 C8          5.2051    9.1194    1.5222 C.ar        1 H52      -0.0481
     18 C7          6.5153    9.0626    1.0553 C.ar        1 H52      -0.0552
     19 C6          7.5713    9.2380    1.9526 C.ar        1 H52      -0.0302
     20 C1          3.6063    9.5165    3.2953 C.ar        1 H52       0.0104
     21 N2          3.3041    9.8543    4.5614 N.ar        1 H52      -0.3085
     22 C3          4.2543   10.1543    5.4650 C.ar        1 H52       0.0074
     23 H1         11.4205    9.8803    3.5853 H           1 H52       0.0564
     24 H2         13.4551    8.6308    3.8048 H           1 H52       0.0250
     25 H3         12.6169    7.0939    3.6272 H           1 H52       0.0250
     26 H4         12.3015    8.1061    5.0406 H           1 H52       0.0250
     27 H5         12.5917    9.5275    1.5652 H           1 H52       0.0832
     28 H6         10.8755    9.5936    1.2153 H           1 H52       0.0832
     29 H7         12.5582    7.1773    1.3823 H           1 H52       0.2014
     30 H8         12.1080    7.9435   -0.0015 H           1 H52       0.2014
     31 H9         10.8357    6.1031    0.0788 H           1 H52       0.0814
     32 H10         9.7352    7.3946    0.5254 H           1 H52       0.0814
     33 H11        11.2883    5.6240    2.4958 H           1 H52       0.0333
     34 H12         9.6791    5.2487    1.9468 H           1 H52       0.0333
     35 H13         8.6432    6.7852    3.2216 H           1 H52       0.0480
     36 H14         9.9888    6.4030    4.2729 H           1 H52       0.0480
     37 H15         5.9966   11.3222    6.8973 H           1 H52       0.0421
     38 H16         7.2147   11.4457    5.6526 H           1 H52       0.0421
     39 H17         7.1003    9.9708    6.6707 H           1 H52       0.0421
     40 H18         4.4368    8.9619    0.8677 H           1 H52       0.0643
     41 H19         6.6979    8.8659    0.0750 H           1 H52       0.0642
     42 H20         8.5049    9.1633    1.5655 H           1 H52       0.0657
     43 H21         2.8298    9.3331    2.6486 H           1 H52       0.0786
     44 H22         3.9429   10.4347    6.3967 H           1 H52       0.0687
@<TRIPOS>BOND
     1     1     2   2
     2     2     3   2
     3     2     4  am
     4     2    12   1
     5     4     5   1
     6     4    11   1
     7     5     6   1
     8     5     7   1
     9     7     8   1
    10     8     9   1
    11     9    10   1
    12    10    11   1
    13    12    13  ar
    14    12    19  ar
    15    13    14  ar
    16    13    16  ar
    17    14    15   1
    18    14    22  ar
    19    16    17  ar
    20    16    20  ar
    21    17    18  ar
    22    18    19  ar
    23    20    21  ar
    24    21    22  ar
    25     5    23   1
    26     6    24   1
    27     6    25   1
    28     6    26   1
    29     7    27   1
    30     7    28   1
    31     8    29   1
    32     8    30   1
    33     9    31   1
    34     9    32   1
    35    10    33   1
    36    10    34   1
    37    11    35   1
    38    11    36   1
    39    15    37   1
    40    15    38   1
    41    15    39   1
    42    17    40   1
    43    18    41   1
    44    19    42   1
    45    20    43   1
    46    22    44   1
@<TRIPOS>SUBSTRUCTURE
     1  H52      5

