@<TRIPOS>MOLECULE
1q8u_ligand_026
    44    46
SMALL
GAST_HUCK
****
This file was generated by PARSER (from files_GN.cpp)

@<TRIPOS>ATOM
      1 O1         16.7197   11.9160   -0.5889 O.2         1 H52      -0.1497
      2 S5         16.0827   10.5840   -1.1780 S.o2        1 H52       0.0732
      3 O2         14.6425   10.5095   -0.5092 O.2         1 H52      -0.1497
      4 N21        17.0648    9.3648   -0.5022 N.am        1 H52      -0.2257
      5 C22        16.4896    8.2309    0.2194 C.3         1 H52       0.0778
      6 C2M        16.2120    7.0672   -0.7683 C.3         1 H52      -0.0402
      7 C23        17.3327    7.7220    1.4405 C.3         1 H52      -0.0136
      8 N24        17.7055    8.7359    2.4595 N.4         1 H52       0.2284
      9 C25        17.9969   10.1265    2.0479 C.3         1 H52      -0.0321
     10 C26        18.9771   10.2531    0.8472 C.3         1 H52       0.0045
     11 C27        18.4919    9.5987   -0.4832 C.3         1 H52       0.0350
     12 C5         15.8864   10.6215   -2.9297 C.ar        1 H52       0.1228
     13 C10        15.0911   11.5278   -3.7277 C.ar        1 H52       0.0294
     14 C4         14.4573   12.7590   -3.3083 C.ar        1 H52      -0.0110
     15 CM         14.6441   13.4537   -2.0063 C.3         1 H52      -0.0231
     16 C9         14.9304   11.1865   -5.1187 C.ar        1 H52       0.0043
     17 C8         15.5622   10.0623   -5.6917 C.ar        1 H52      -0.0481
     18 C7         16.3834    9.2500   -4.9147 C.ar        1 H52      -0.0552
     19 C6         16.5379    9.5283   -3.5550 C.ar        1 H52      -0.0302
     20 C1         14.1473   11.9780   -5.9824 C.ar        1 H52       0.0104
     21 N2         13.5525   13.0937   -5.5216 N.ar        1 H52      -0.3085
     22 C3         13.6779   13.4865   -4.2426 C.ar        1 H52       0.0074
     23 H1         15.5275    8.5197    0.6468 H           1 H52       0.0564
     24 H2         15.7235    6.2356   -0.2559 H           1 H52       0.0250
     25 H3         17.1452    6.7054   -1.2079 H           1 H52       0.0250
     26 H4         15.5531    7.4013   -1.5708 H           1 H52       0.0250
     27 H5         18.2532    7.2520    1.0896 H           1 H52       0.0832
     28 H6         16.7728    6.9430    1.9640 H           1 H52       0.0832
     29 H7         18.5471    8.4005    2.9296 H           1 H52       0.2014
     30 H8         16.9534    8.7740    3.1511 H           1 H52       0.2014
     31 H9         18.4289   10.6431    2.9080 H           1 H52       0.0814
     32 H10        17.0569   10.6335    1.8211 H           1 H52       0.0814
     33 H11        19.9382    9.8186    1.1330 H           1 H52       0.0333
     34 H12        19.1450   11.3187    0.6686 H           1 H52       0.0333
     35 H13        18.8094   10.2271   -1.3239 H           1 H52       0.0480
     36 H14        19.0112    8.6484   -0.6304 H           1 H52       0.0480
     37 H15        14.1130   14.4063   -1.9264 H           1 H52       0.0421
     38 H16        15.6974   13.6926   -1.8847 H           1 H52       0.0421
     39 H17        14.2767   12.8492   -1.1888 H           1 H52       0.0421
     40 H18        15.4441    9.8320   -6.6829 H           1 H52       0.0643
     41 H19        16.8538    8.4438   -5.3345 H           1 H52       0.0642
     42 H20        17.1354    8.8879   -3.0299 H           1 H52       0.0657
     43 H21        14.0288   11.7426   -6.9723 H           1 H52       0.0786
     44 H22        13.2145   14.3612   -3.9889 H           1 H52       0.0687
@<TRIPOS>BOND
     1     1     2   2
     2     2     3   2
     3     2     4  am
     4     2    12   1
     5     4     5   1
     6     4    11   1
     7     5     6   1
     8     5     7   1
     9     7     8   1
    10     8     9   1
    11     9    10   1
    12    10    11   1
    13    12    13  ar
    14    12    19  ar
    15    13    14  ar
    16    13    16  ar
    17    14    15   1
    18    14    22  ar
    19    16    17  ar
    20    16    20  ar
    21    17    18  ar
    22    18    19  ar
    23    20    21  ar
    24    21    22  ar
    25     5    23   1
    26     6    24   1
    27     6    25   1
    28     6    26   1
    29     7    27   1
    30     7    28   1
    31     8    29   1
    32     8    30   1
    33     9    31   1
    34     9    32   1
    35    10    33   1
    36    10    34   1
    37    11    35   1
    38    11    36   1
    39    15    37   1
    40    15    38   1
    41    15    39   1
    42    17    40   1
    43    18    41   1
    44    19    42   1
    45    20    43   1
    46    22    44   1
@<TRIPOS>SUBSTRUCTURE
     1  H52      5

