@<TRIPOS>MOLECULE
1q8u_ligand_045
    44    46
SMALL
GAST_HUCK
****
This file was generated by PARSER (from files_GN.cpp)

@<TRIPOS>ATOM
      1 O1         14.0641   11.0598   -1.8814 O.2         1 H52      -0.1497
      2 S5         13.5048   11.3419   -0.4192 S.o2        1 H52       0.0732
      3 O2         12.0202   11.0474   -0.9150 O.2         1 H52      -0.1497
      4 N21        13.5348   13.0060   -0.0386 N.am        1 H52      -0.2257
      5 C22        12.3929   13.6392    0.6052 C.3         1 H52       0.0778
      6 C2M        12.5781   13.6570    2.1514 C.3         1 H52      -0.0402
      7 C23        12.0433   15.0768    0.0973 C.3         1 H52      -0.0136
      8 N24        12.2368   15.3066   -1.3533 N.4         1 H52       0.2284
      9 C25        13.6033   15.6436   -1.7986 C.3         1 H52      -0.0321
     10 C26        14.5797   14.4474   -1.7661 C.3         1 H52       0.0045
     11 C27        14.7128   13.7727   -0.3779 C.3         1 H52       0.0350
     12 C5         13.7835   10.0660    0.7646 C.ar        1 H52       0.1228
     13 C10        14.7787    9.0308    0.6714 C.ar        1 H52       0.0294
     14 C4         15.9924    9.0870   -0.0969 C.ar        1 H52      -0.0110
     15 CM         16.6713   10.3328   -0.5369 C.3         1 H52      -0.0231
     16 C9         14.5327    7.8206    1.4085 C.ar        1 H52       0.0043
     17 C8         13.4750    7.7251    2.3345 C.ar        1 H52      -0.0481
     18 C7         12.6171    8.8126    2.5320 C.ar        1 H52      -0.0552
     19 C6         12.7506    9.9474    1.7250 C.ar        1 H52      -0.0302
     20 C1         15.3560    6.6937    1.2099 C.ar        1 H52       0.0104
     21 N2         16.4096    6.7594    0.3737 N.ar        1 H52      -0.3085
     22 C3         16.7444    7.8966   -0.2694 C.ar        1 H52       0.0074
     23 H1         11.4948   13.0473    0.4050 H           1 H52       0.0564
     24 H2         11.6538   13.9852    2.6339 H           1 H52       0.0250
     25 H3         13.3850   14.3370    2.4373 H           1 H52       0.0250
     26 H4         12.8288   12.6676    2.5351 H           1 H52       0.0250
     27 H5         12.6091   15.8236    0.6527 H           1 H52       0.0832
     28 H6         10.9876   15.2586    0.3072 H           1 H52       0.0832
     29 H7         11.6422   16.0970   -1.6133 H           1 H52       0.2014
     30 H8         11.9264   14.4825   -1.8664 H           1 H52       0.2014
     31 H9         13.9934   16.4686   -1.2014 H           1 H52       0.0814
     32 H10        13.5335   15.9975   -2.8294 H           1 H52       0.0814
     33 H11        15.5646   14.8090   -2.0662 H           1 H52       0.0333
     34 H12        14.2652   13.7053   -2.5078 H           1 H52       0.0333
     35 H13        15.6021   13.1489   -0.4067 H           1 H52       0.0480
     36 H14        14.9096   14.5312    0.3841 H           1 H52       0.0480
     37 H15        17.7621   10.2503   -0.4700 H           1 H52       0.0421
     38 H16        16.3922   11.1491    0.1267 H           1 H52       0.0421
     39 H17        16.4278   10.5609   -1.5767 H           1 H52       0.0421
     40 H18        13.3189    6.8724    2.8778 H           1 H52       0.0643
     41 H19        11.8488    8.7459    3.2055 H           1 H52       0.0642
     42 H20        12.0159   10.6560    1.8075 H           1 H52       0.0657
     43 H21        15.1760    5.8103    1.6934 H           1 H52       0.0786
     44 H22        17.5897    7.8933   -0.8395 H           1 H52       0.0687
@<TRIPOS>BOND
     1     1     2   2
     2     2     3   2
     3     2     4  am
     4     2    12   1
     5     4     5   1
     6     4    11   1
     7     5     6   1
     8     5     7   1
     9     7     8   1
    10     8     9   1
    11     9    10   1
    12    10    11   1
    13    12    13  ar
    14    12    19  ar
    15    13    14  ar
    16    13    16  ar
    17    14    15   1
    18    14    22  ar
    19    16    17  ar
    20    16    20  ar
    21    17    18  ar
    22    18    19  ar
    23    20    21  ar
    24    21    22  ar
    25     5    23   1
    26     6    24   1
    27     6    25   1
    28     6    26   1
    29     7    27   1
    30     7    28   1
    31     8    29   1
    32     8    30   1
    33     9    31   1
    34     9    32   1
    35    10    33   1
    36    10    34   1
    37    11    35   1
    38    11    36   1
    39    15    37   1
    40    15    38   1
    41    15    39   1
    42    17    40   1
    43    18    41   1
    44    19    42   1
    45    20    43   1
    46    22    44   1
@<TRIPOS>SUBSTRUCTURE
     1  H52      5

