@<TRIPOS>MOLECULE
1q8u_ligand_075
    44    46
SMALL
GAST_HUCK
****
This file was generated by PARSER (from files_GN.cpp)

@<TRIPOS>ATOM
      1 O1         14.6861    9.1155    6.0014 O.2         1 H52      -0.1497
      2 S5         14.0913    8.7710    4.5618 S.o2        1 H52       0.0732
      3 O2         13.2049    7.4878    4.8517 O.2         1 H52      -0.1497
      4 N21        15.3464    8.2587    3.5337 N.am        1 H52      -0.2257
      5 C22        16.7534    8.4001    3.8805 C.3         1 H52       0.0778
      6 C2M        17.1891    9.8297    4.3098 C.3         1 H52      -0.0402
      7 C23        17.2072    7.2956    4.8848 C.3         1 H52      -0.0136
      8 N24        16.6155    5.9459    4.6857 N.4         1 H52       0.2284
      9 C25        16.4528    5.4485    3.2971 C.3         1 H52      -0.0321
     10 C26        15.1171    5.9131    2.6597 C.3         1 H52       0.0045
     11 C27        15.0067    7.4379    2.3884 C.3         1 H52       0.0350
     12 C5         13.0232   10.0057    3.8999 C.ar        1 H52       0.1228
     13 C10        11.6915   10.2942    4.3640 C.ar        1 H52       0.0294
     14 C4         11.2083   10.1518    5.7092 C.ar        1 H52      -0.0110
     15 CM         12.0777   10.0308    6.9104 C.3         1 H52      -0.0231
     16 C9         10.7591   10.7965    3.3936 C.ar        1 H52       0.0043
     17 C8         11.1716   11.1456    2.0900 C.ar        1 H52      -0.0481
     18 C7         12.5144   11.0343    1.7247 C.ar        1 H52      -0.0552
     19 C6         13.4244   10.4631    2.6216 C.ar        1 H52      -0.0302
     20 C1          9.3976   10.9619    3.7327 C.ar        1 H52       0.0104
     21 N2          8.9715   10.7037    4.9856 N.ar        1 H52      -0.3085
     22 C3          9.8243   10.3191    5.9625 C.ar        1 H52       0.0074
     23 H1         17.3503    8.2246    2.9749 H           1 H52       0.0564
     24 H2         18.2774    9.8884    4.3555 H           1 H52       0.0250
     25 H3         16.8055   10.1070    5.2893 H           1 H52       0.0250
     26 H4         16.8388   10.5537    3.5725 H           1 H52       0.0250
     27 H5         16.9625    7.5967    5.9038 H           1 H52       0.0832
     28 H6         18.2995    7.1892    4.8304 H           1 H52       0.0832
     29 H7         15.6965    5.9341    5.1298 H           1 H52       0.2014
     30 H8         17.2090    5.2790    5.1846 H           1 H52       0.2014
     31 H9         16.4453    4.3618    3.3425 H           1 H52       0.0814
     32 H10        17.2952    5.7471    2.6665 H           1 H52       0.0814
     33 H11        14.2934    5.6080    3.3112 H           1 H52       0.0333
     34 H12        14.9885    5.3948    1.7050 H           1 H52       0.0333
     35 H13        15.6596    7.6920    1.5474 H           1 H52       0.0480
     36 H14        13.9913    7.6509    2.0422 H           1 H52       0.0480
     37 H15        11.5520   10.2479    7.8474 H           1 H52       0.0421
     38 H16        12.8998   10.7454    6.8300 H           1 H52       0.0421
     39 H17        12.4625    9.0147    6.9914 H           1 H52       0.0421
     40 H18        10.5077   11.5098    1.4023 H           1 H52       0.0643
     41 H19        12.8179   11.2943    0.7875 H           1 H52       0.0642
     42 H20        14.3829   10.3201    2.2857 H           1 H52       0.0657
     43 H21         8.7075   11.2830    3.0469 H           1 H52       0.0786
     44 H22         9.4341   10.1836    6.9003 H           1 H52       0.0687
@<TRIPOS>BOND
     1     1     2   2
     2     2     3   2
     3     2     4  am
     4     2    12   1
     5     4     5   1
     6     4    11   1
     7     5     6   1
     8     5     7   1
     9     7     8   1
    10     8     9   1
    11     9    10   1
    12    10    11   1
    13    12    13  ar
    14    12    19  ar
    15    13    14  ar
    16    13    16  ar
    17    14    15   1
    18    14    22  ar
    19    16    17  ar
    20    16    20  ar
    21    17    18  ar
    22    18    19  ar
    23    20    21  ar
    24    21    22  ar
    25     5    23   1
    26     6    24   1
    27     6    25   1
    28     6    26   1
    29     7    27   1
    30     7    28   1
    31     8    29   1
    32     8    30   1
    33     9    31   1
    34     9    32   1
    35    10    33   1
    36    10    34   1
    37    11    35   1
    38    11    36   1
    39    15    37   1
    40    15    38   1
    41    15    39   1
    42    17    40   1
    43    18    41   1
    44    19    42   1
    45    20    43   1
    46    22    44   1
@<TRIPOS>SUBSTRUCTURE
     1  H52      5

