@<TRIPOS>MOLECULE
1q8u_ligand_053
    44    46
SMALL
GAST_HUCK
****
This file was generated by PARSER (from files_GN.cpp)

@<TRIPOS>ATOM
      1 O1         14.6936    7.9800    1.7650 O.2         1 H52      -0.1497
      2 S5         14.0276    7.8532    3.2034 S.o2        1 H52       0.0732
      3 O2         14.1809    6.2982    3.5134 O.2         1 H52      -0.1497
      4 N21        12.3580    8.1725    2.9982 N.am        1 H52      -0.2257
      5 C22        11.3614    7.5561    3.8668 C.3         1 H52       0.0778
      6 C2M        10.9221    8.5234    5.0040 C.3         1 H52      -0.0402
      7 C23        10.0831    7.0187    3.1464 C.3         1 H52      -0.0136
      8 N24        10.3192    6.3619    1.8435 N.4         1 H52       0.2284
      9 C25        10.4088    7.2533    0.6693 C.3         1 H52      -0.0321
     10 C26        11.7076    8.0841    0.6039 C.3         1 H52       0.0045
     11 C27        11.9551    8.9663    1.8576 C.3         1 H52       0.0350
     12 C5         14.9416    8.7919    4.3898 C.ar        1 H52       0.1228
     13 C10        16.2581    8.5062    4.8947 C.ar        1 H52       0.0294
     14 C4         17.3061    7.7939    4.2101 C.ar        1 H52      -0.0110
     15 CM         17.3106    7.4508    2.7633 C.3         1 H52      -0.0231
     16 C9         16.5820    9.0276    6.1948 C.ar        1 H52       0.0043
     17 C8         15.6954    9.8696    6.8941 C.ar        1 H52      -0.0481
     18 C7         14.5016   10.2705    6.2934 C.ar        1 H52      -0.0552
     19 C6         14.1497    9.7705    5.0368 C.ar        1 H52      -0.0302
     20 C1         17.8151    8.7226    6.8051 C.ar        1 H52       0.0104
     21 N2         18.7301    7.9849    6.1518 N.ar        1 H52      -0.3085
     22 C3         18.5135    7.5253    4.9021 C.ar        1 H52       0.0074
     23 H1         11.8083    6.6907    4.3621 H           1 H52       0.0564
     24 H2         10.0455    8.1330    5.5336 H           1 H52       0.0250
     25 H3         10.6536    9.5007    4.6002 H           1 H52       0.0250
     26 H4         11.7258    8.6637    5.7299 H           1 H52       0.0250
     27 H5          9.3494    7.8226    3.0195 H           1 H52       0.0832
     28 H6          9.6122    6.2762    3.7980 H           1 H52       0.0832
     29 H7          9.5122    5.7642    1.6695 H           1 H52       0.2014
     30 H8         11.1542    5.7745    1.8888 H           1 H52       0.2014
     31 H9          9.5419    7.9162    0.6288 H           1 H52       0.0814
     32 H10        10.3604    6.6148   -0.2107 H           1 H52       0.0814
     33 H11        11.6537    8.7331   -0.2728 H           1 H52       0.0333
     34 H12        12.5486    7.4034    0.4551 H           1 H52       0.0333
     35 H13        12.7229    9.7099    1.6210 H           1 H52       0.0480
     36 H14        11.0542    9.5388    2.0847 H           1 H52       0.0480
     37 H15        18.2879    7.1220    2.4004 H           1 H52       0.0421
     38 H16        17.0484    8.3327    2.1816 H           1 H52       0.0421
     39 H17        16.6216    6.6392    2.5594 H           1 H52       0.0421
     40 H18        15.9272   10.2384    7.8219 H           1 H52       0.0643
     41 H19        13.8685   10.9035    6.7867 H           1 H52       0.0642
     42 H20        13.2666   10.0887    4.6274 H           1 H52       0.0657
     43 H21        18.0528    9.0625    7.7415 H           1 H52       0.0786
     44 H22        19.2817    7.0133    4.4589 H           1 H52       0.0687
@<TRIPOS>BOND
     1     1     2   2
     2     2     3   2
     3     2     4  am
     4     2    12   1
     5     4     5   1
     6     4    11   1
     7     5     6   1
     8     5     7   1
     9     7     8   1
    10     8     9   1
    11     9    10   1
    12    10    11   1
    13    12    13  ar
    14    12    19  ar
    15    13    14  ar
    16    13    16  ar
    17    14    15   1
    18    14    22  ar
    19    16    17  ar
    20    16    20  ar
    21    17    18  ar
    22    18    19  ar
    23    20    21  ar
    24    21    22  ar
    25     5    23   1
    26     6    24   1
    27     6    25   1
    28     6    26   1
    29     7    27   1
    30     7    28   1
    31     8    29   1
    32     8    30   1
    33     9    31   1
    34     9    32   1
    35    10    33   1
    36    10    34   1
    37    11    35   1
    38    11    36   1
    39    15    37   1
    40    15    38   1
    41    15    39   1
    42    17    40   1
    43    18    41   1
    44    19    42   1
    45    20    43   1
    46    22    44   1
@<TRIPOS>SUBSTRUCTURE
     1  H52      5

