@<TRIPOS>MOLECULE
1q8u_ligand_031
    44    46
SMALL
GAST_HUCK
****
This file was generated by PARSER (from files_GN.cpp)

@<TRIPOS>ATOM
      1 O1         16.7600    9.4739   -0.4750 O.2         1 H52      -0.1497
      2 S5         17.5498    9.1378    0.8655 S.o2        1 H52       0.0732
      3 O2         18.3077    7.7843    0.5260 O.2         1 H52      -0.1497
      4 N21        16.4672    8.7695    2.1282 N.am        1 H52      -0.2257
      5 C22        15.0316    9.0000    2.0301 C.3         1 H52       0.0778
      6 C2M        14.5868   10.4087    1.5539 C.3         1 H52      -0.0402
      7 C23        14.3312    7.8647    1.2133 C.3         1 H52      -0.0136
      8 N24        14.9247    6.5139    1.3220 N.4         1 H52       0.2284
      9 C25        15.3089    6.0227    2.6640 C.3         1 H52      -0.0321
     10 C26        16.7485    6.4477    3.0479 C.3         1 H52       0.0045
     11 C27        16.9653    7.9750    3.2344 C.3         1 H52       0.0350
     12 C5         18.7506   10.3552    1.2677 C.ar        1 H52       0.1228
     13 C10        20.0753   10.4499    0.7112 C.ar        1 H52       0.0294
     14 C4         20.4980    9.9450   -0.5667 C.ar        1 H52      -0.0110
     15 CM         19.5817    9.6459   -1.6974 C.3         1 H52      -0.0231
     16 C9         21.0696   11.1141    1.5039 C.ar        1 H52       0.0043
     17 C8         20.7188   11.8201    2.6747 C.ar        1 H52      -0.0481
     18 C7         19.3862   11.8574    3.1017 C.ar        1 H52      -0.0552
     19 C6         18.4295   11.1019    2.4206 C.ar        1 H52      -0.0302
     20 C1         22.4257   11.0664    1.1247 C.ar        1 H52       0.0104
     21 N2         22.7900   10.4634   -0.0196 N.ar        1 H52      -0.3085
     22 C3         21.8859    9.9224   -0.8661 C.ar        1 H52       0.0074
     23 H1         14.6138    8.9330    3.0418 H           1 H52       0.0564
     24 H2         13.5212   10.5466    1.7455 H           1 H52       0.0250
     25 H3         14.7538   10.5549    0.4921 H           1 H52       0.0250
     26 H4         15.1247   11.1811    2.0975 H           1 H52       0.0250
     27 H5         14.3506    8.1247    0.1547 H           1 H52       0.0832
     28 H6         13.2794    7.8069    1.5142 H           1 H52       0.0832
     29 H7         15.7473    6.5045    0.7179 H           1 H52       0.2014
     30 H8         14.2462    5.8605    0.9347 H           1 H52       0.2014
     31 H9         15.2792    4.9360    2.6281 H           1 H52       0.0814
     32 H10        14.5964    6.3481    3.4249 H           1 H52       0.0814
     33 H11        17.4357    6.0839    2.2805 H           1 H52       0.0333
     34 H12        17.0200    5.9471    3.9823 H           1 H52       0.0333
     35 H13        16.4765    8.2804    4.1639 H           1 H52       0.0480
     36 H14        18.0303    8.1529    3.3922 H           1 H52       0.0480
     37 H15        20.0826    9.6735   -2.6628 H           1 H52       0.0421
     38 H16        18.7966   10.3992   -1.7356 H           1 H52       0.0421
     39 H17        19.1524    8.6552   -1.5933 H           1 H52       0.0421
     40 H18        21.4258   12.3171    3.2215 H           1 H52       0.0643
     41 H19        19.1349   12.3748    3.9432 H           1 H52       0.0642
     42 H20        17.4992   11.0653    2.8374 H           1 H52       0.0657
     43 H21        23.1585   11.4871    1.7056 H           1 H52       0.0786
     44 H22        22.2332    9.5380   -1.7445 H           1 H52       0.0687
@<TRIPOS>BOND
     1     1     2   2
     2     2     3   2
     3     2     4  am
     4     2    12   1
     5     4     5   1
     6     4    11   1
     7     5     6   1
     8     5     7   1
     9     7     8   1
    10     8     9   1
    11     9    10   1
    12    10    11   1
    13    12    13  ar
    14    12    19  ar
    15    13    14  ar
    16    13    16  ar
    17    14    15   1
    18    14    22  ar
    19    16    17  ar
    20    16    20  ar
    21    17    18  ar
    22    18    19  ar
    23    20    21  ar
    24    21    22  ar
    25     5    23   1
    26     6    24   1
    27     6    25   1
    28     6    26   1
    29     7    27   1
    30     7    28   1
    31     8    29   1
    32     8    30   1
    33     9    31   1
    34     9    32   1
    35    10    33   1
    36    10    34   1
    37    11    35   1
    38    11    36   1
    39    15    37   1
    40    15    38   1
    41    15    39   1
    42    17    40   1
    43    18    41   1
    44    19    42   1
    45    20    43   1
    46    22    44   1
@<TRIPOS>SUBSTRUCTURE
     1  H52      5

