@<TRIPOS>MOLECULE
1q8u_ligand_066
    44    46
SMALL
GAST_HUCK
****
This file was generated by PARSER (from files_GN.cpp)

@<TRIPOS>ATOM
      1 O1         14.0261   10.7755    0.6403 O.2         1 H52      -0.1497
      2 S5         15.1336    9.9152   -0.1127 S.o2        1 H52       0.0732
      3 O2         14.4272    8.4972    0.0455 O.2         1 H52      -0.1497
      4 N21        16.5837    9.7367    0.7572 N.am        1 H52      -0.2257
      5 C22        17.5893    8.8249    0.2478 C.3         1 H52       0.0778
      6 C2M        18.9993    9.4799    0.1797 C.3         1 H52      -0.0402
      7 C23        17.5706    7.4550    0.9875 C.3         1 H52      -0.0136
      8 N24        18.0248    7.5217    2.3879 N.4         1 H52       0.2284
      9 C25        17.0577    7.9297    3.4330 C.3         1 H52      -0.0321
     10 C26        16.0561    9.0679    3.0967 C.3         1 H52       0.0045
     11 C27        16.6022   10.1631    2.1414 C.3         1 H52       0.0350
     12 C5         15.1916   10.3294   -1.8224 C.ar        1 H52       0.1228
     13 C10        14.8443   11.6036   -2.3963 C.ar        1 H52       0.0294
     14 C4         14.7937   12.8665   -1.7092 C.ar        1 H52      -0.0110
     15 CM         15.4003   13.1472   -0.3778 C.3         1 H52      -0.0231
     16 C9         14.5251   11.6222   -3.7983 C.ar        1 H52       0.0043
     17 C8         14.6928   10.4766   -4.6083 C.ar        1 H52      -0.0481
     18 C7         15.1675    9.2876   -4.0504 C.ar        1 H52      -0.0552
     19 C6         15.4009    9.2168   -2.6735 C.ar        1 H52      -0.0302
     20 C1         14.0241   12.7973   -4.4014 C.ar        1 H52       0.0104
     21 N2         13.8907   13.9299   -3.6846 N.ar        1 H52      -0.3085
     22 C3         14.2623   13.9908   -2.3869 C.ar        1 H52       0.0074
     23 H1         17.3616    8.5874   -0.7965 H           1 H52       0.0564
     24 H2         19.6996    8.8272   -0.3431 H           1 H52       0.0250
     25 H3         19.3972    9.6830    1.1738 H           1 H52       0.0250
     26 H4         18.9415   10.4249   -0.3669 H           1 H52       0.0250
     27 H5         18.2471    6.7677    0.4744 H           1 H52       0.0832
     28 H6         16.5740    7.0076    0.9386 H           1 H52       0.0832
     29 H7         18.8217    8.1536    2.4318 H           1 H52       0.2014
     30 H8         18.3650    6.5879    2.6345 H           1 H52       0.2014
     31 H9         17.6556    8.2409    4.2928 H           1 H52       0.0814
     32 H10        16.4933    7.0435    3.7428 H           1 H52       0.0814
     33 H11        15.7490    9.5410    4.0357 H           1 H52       0.0333
     34 H12        15.1532    8.6264    2.6581 H           1 H52       0.0333
     35 H13        15.9925   11.0641    2.2662 H           1 H52       0.0480
     36 H14        17.6082   10.4469    2.4569 H           1 H52       0.0480
     37 H15        15.6757   14.2070   -0.2699 H           1 H52       0.0421
     38 H16        16.3228   12.5719   -0.2537 H           1 H52       0.0421
     39 H17        14.6842   12.9079    0.4114 H           1 H52       0.0421
     40 H18        14.4741   10.5017   -5.6108 H           1 H52       0.0643
     41 H19        15.2953    8.4639   -4.6418 H           1 H52       0.0642
     42 H20        15.6779    8.3099   -2.2993 H           1 H52       0.0657
     43 H21        13.7494   12.8139   -5.3854 H           1 H52       0.0786
     44 H22        14.1879   14.9010   -1.9249 H           1 H52       0.0687
@<TRIPOS>BOND
     1     1     2   2
     2     2     3   2
     3     2     4  am
     4     2    12   1
     5     4     5   1
     6     4    11   1
     7     5     6   1
     8     5     7   1
     9     7     8   1
    10     8     9   1
    11     9    10   1
    12    10    11   1
    13    12    13  ar
    14    12    19  ar
    15    13    14  ar
    16    13    16  ar
    17    14    15   1
    18    14    22  ar
    19    16    17  ar
    20    16    20  ar
    21    17    18  ar
    22    18    19  ar
    23    20    21  ar
    24    21    22  ar
    25     5    23   1
    26     6    24   1
    27     6    25   1
    28     6    26   1
    29     7    27   1
    30     7    28   1
    31     8    29   1
    32     8    30   1
    33     9    31   1
    34     9    32   1
    35    10    33   1
    36    10    34   1
    37    11    35   1
    38    11    36   1
    39    15    37   1
    40    15    38   1
    41    15    39   1
    42    17    40   1
    43    18    41   1
    44    19    42   1
    45    20    43   1
    46    22    44   1
@<TRIPOS>SUBSTRUCTURE
     1  H52      5

