@<TRIPOS>MOLECULE
1q8u_ligand_034
    44    46
SMALL
GAST_HUCK
****
This file was generated by PARSER (from files_GN.cpp)

@<TRIPOS>ATOM
      1 O1         16.7775   13.2011   -1.3709 O.2         1 H52      -0.1497
      2 S5         15.9001   11.9353   -0.9527 S.o2        1 H52       0.0732
      3 O2         16.7471   11.2964    0.2347 O.2         1 H52      -0.1497
      4 N21        16.0257   10.9871   -2.3645 N.am        1 H52      -0.2257
      5 C22        14.8965   10.8869   -3.2857 C.3         1 H52       0.0778
      6 C2M        14.5106   12.2622   -3.9143 C.3         1 H52      -0.0402
      7 C23        15.0749    9.8698   -4.4600 C.3         1 H52      -0.0136
      8 N24        15.3356    8.4646   -4.0939 N.4         1 H52       0.2284
      9 C25        16.2776    8.1202   -3.0084 C.3         1 H52      -0.0321
     10 C26        17.5406    8.9942   -2.7929 C.3         1 H52       0.0045
     11 C27        17.3514   10.5389   -2.7456 C.3         1 H52       0.0350
     12 C5         14.3565   12.5129   -0.3254 C.ar        1 H52       0.1228
     13 C10        13.1576   11.7336   -0.1551 C.ar        1 H52       0.0294
     14 C4         13.0849   10.3055   -0.0071 C.ar        1 H52      -0.0110
     15 CM         14.2290    9.4448    0.3892 C.3         1 H52      -0.0231
     16 C9         11.9127   12.4482   -0.0996 C.ar        1 H52       0.0043
     17 C8         11.8782   13.8566   -0.0028 C.ar        1 H52      -0.0481
     18 C7         13.0654   14.5810    0.0298 C.ar        1 H52      -0.0552
     19 C6         14.2849   13.9177   -0.1441 C.ar        1 H52      -0.0302
     20 C1         10.6895   11.7461   -0.1279 C.ar        1 H52       0.0104
     21 N2         10.6776   10.4008   -0.1238 N.ar        1 H52      -0.3085
     22 C3         11.8160    9.6774   -0.0565 C.ar        1 H52       0.0074
     23 H1         14.0348   10.5399   -2.7078 H           1 H52       0.0564
     24 H2         13.6052   12.1703   -4.5180 H           1 H52       0.0250
     25 H3         15.3047   12.6165   -4.5655 H           1 H52       0.0250
     26 H4         14.3190   13.0183   -3.1553 H           1 H52       0.0250
     27 H5         15.8731   10.2002   -5.1306 H           1 H52       0.0832
     28 H6         14.1544    9.8512   -5.0522 H           1 H52       0.0832
     29 H7         15.6371    7.9813   -4.9452 H           1 H52       0.2014
     30 H8         14.4290    8.0781   -3.8328 H           1 H52       0.2014
     31 H9         16.6014    7.0934   -3.1894 H           1 H52       0.0814
     32 H10        15.7083    8.1046   -2.0800 H           1 H52       0.0814
     33 H11        18.2648    8.7575   -3.5814 H           1 H52       0.0333
     34 H12        17.9812    8.6793   -1.8430 H           1 H52       0.0333
     35 H13        18.1246   10.9409   -2.0804 H           1 H52       0.0480
     36 H14        17.5843   10.9507   -3.7291 H           1 H52       0.0480
     37 H15        13.9342    8.4258    0.6526 H           1 H52       0.0421
     38 H16        14.7224    9.8709    1.2582 H           1 H52       0.0421
     39 H17        14.9432    9.3752   -0.4225 H           1 H52       0.0421
     40 H18        10.9895   14.3608    0.0737 H           1 H52       0.0643
     41 H19        13.0414   15.5988    0.1254 H           1 H52       0.0642
     42 H20        15.1218   14.4993   -0.1701 H           1 H52       0.0657
     43 H21         9.7931   12.2420   -0.1430 H           1 H52       0.0786
     44 H22        11.7249    8.6625    0.0031 H           1 H52       0.0687
@<TRIPOS>BOND
     1     1     2   2
     2     2     3   2
     3     2     4  am
     4     2    12   1
     5     4     5   1
     6     4    11   1
     7     5     6   1
     8     5     7   1
     9     7     8   1
    10     8     9   1
    11     9    10   1
    12    10    11   1
    13    12    13  ar
    14    12    19  ar
    15    13    14  ar
    16    13    16  ar
    17    14    15   1
    18    14    22  ar
    19    16    17  ar
    20    16    20  ar
    21    17    18  ar
    22    18    19  ar
    23    20    21  ar
    24    21    22  ar
    25     5    23   1
    26     6    24   1
    27     6    25   1
    28     6    26   1
    29     7    27   1
    30     7    28   1
    31     8    29   1
    32     8    30   1
    33     9    31   1
    34     9    32   1
    35    10    33   1
    36    10    34   1
    37    11    35   1
    38    11    36   1
    39    15    37   1
    40    15    38   1
    41    15    39   1
    42    17    40   1
    43    18    41   1
    44    19    42   1
    45    20    43   1
    46    22    44   1
@<TRIPOS>SUBSTRUCTURE
     1  H52      5

