@<TRIPOS>MOLECULE
1q8u_ligand_073
    44    46
SMALL
GAST_HUCK
****
This file was generated by PARSER (from files_GN.cpp)

@<TRIPOS>ATOM
      1 O1         13.1679    9.0202   -0.0517 O.2         1 H52      -0.1497
      2 S5         14.5492    9.7597   -0.3458 S.o2        1 H52       0.0732
      3 O2         14.4757    9.6415   -1.9318 O.2         1 H52      -0.1497
      4 N21        15.9163    8.8392    0.0353 N.am        1 H52      -0.2257
      5 C22        15.8185    7.7099    0.9416 C.3         1 H52       0.0778
      6 C2M        15.4505    6.4337    0.1397 C.3         1 H52      -0.0402
      7 C23        17.0909    7.4998    1.8259 C.3         1 H52      -0.0136
      8 N24        17.5808    8.6860    2.5749 N.4         1 H52       0.2284
      9 C25        17.6366   10.0272    1.9394 C.3         1 H52      -0.0321
     10 C26        18.0355   10.0885    0.4379 C.3         1 H52       0.0045
     11 C27        17.1850    9.2259   -0.5365 C.3         1 H52       0.0350
     12 C5         14.5181   11.4747    0.0534 C.ar        1 H52       0.1228
     13 C10        13.8048   12.1124    1.1299 C.ar        1 H52       0.0294
     14 C4         13.2520   11.4848    2.3046 C.ar        1 H52      -0.0110
     15 CM         13.5472   10.1079    2.7679 C.3         1 H52      -0.0231
     16 C9         13.6291   13.5329    1.0266 C.ar        1 H52       0.0043
     17 C8         14.2173   14.2805   -0.0157 C.ar        1 H52      -0.0481
     18 C7         15.0094   13.6501   -0.9737 C.ar        1 H52      -0.0552
     19 C6         15.1509   12.2630   -0.9389 C.ar        1 H52      -0.0302
     20 C1         12.8544   14.2319    1.9713 C.ar        1 H52       0.0104
     21 N2         12.2921   13.5852    3.0048 N.ar        1 H52      -0.3085
     22 C3         12.4674   12.2620    3.1976 C.ar        1 H52       0.0074
     23 H1         14.9929    7.8677    1.6428 H           1 H52       0.0564
     24 H2         15.3104    5.5882    0.8164 H           1 H52       0.0250
     25 H3         16.2351    6.1913   -0.5764 H           1 H52       0.0250
     26 H4         14.5181    6.5801   -0.4072 H           1 H52       0.0250
     27 H5         17.9144    7.1247    1.2146 H           1 H52       0.0832
     28 H6         16.8792    6.7250    2.5689 H           1 H52       0.0832
     29 H7         18.5248    8.4723    2.9045 H           1 H52       0.2014
     30 H8         16.9865    8.7850    3.4020 H           1 H52       0.2014
     31 H9         18.3555   10.6223    2.5109 H           1 H52       0.0814
     32 H10        16.6498   10.4925    2.0679 H           1 H52       0.0814
     33 H11        19.0818    9.7939    0.3412 H           1 H52       0.0333
     34 H12        17.9581   11.1340    0.1274 H           1 H52       0.0333
     35 H13        17.0619    9.7654   -1.4819 H           1 H52       0.0480
     36 H14        17.7461    8.3272   -0.8036 H           1 H52       0.0480
     37 H15        13.3907    9.9707    3.8435 H           1 H52       0.0421
     38 H16        14.6066    9.8926    2.5785 H           1 H52       0.0421
     39 H17        12.8950    9.3929    2.2694 H           1 H52       0.0421
     40 H18        14.0818   15.2878   -0.0874 H           1 H52       0.0643
     41 H19        15.4409   14.1895   -1.7254 H           1 H52       0.0642
     42 H20        15.6859   11.8392   -1.7027 H           1 H52       0.0657
     43 H21        12.7093   15.2385    1.8934 H           1 H52       0.0786
     44 H22        12.0374   11.8473    4.0285 H           1 H52       0.0687
@<TRIPOS>BOND
     1     1     2   2
     2     2     3   2
     3     2     4  am
     4     2    12   1
     5     4     5   1
     6     4    11   1
     7     5     6   1
     8     5     7   1
     9     7     8   1
    10     8     9   1
    11     9    10   1
    12    10    11   1
    13    12    13  ar
    14    12    19  ar
    15    13    14  ar
    16    13    16  ar
    17    14    15   1
    18    14    22  ar
    19    16    17  ar
    20    16    20  ar
    21    17    18  ar
    22    18    19  ar
    23    20    21  ar
    24    21    22  ar
    25     5    23   1
    26     6    24   1
    27     6    25   1
    28     6    26   1
    29     7    27   1
    30     7    28   1
    31     8    29   1
    32     8    30   1
    33     9    31   1
    34     9    32   1
    35    10    33   1
    36    10    34   1
    37    11    35   1
    38    11    36   1
    39    15    37   1
    40    15    38   1
    41    15    39   1
    42    17    40   1
    43    18    41   1
    44    19    42   1
    45    20    43   1
    46    22    44   1
@<TRIPOS>SUBSTRUCTURE
     1  H52      5

