@<TRIPOS>MOLECULE
1q8u_ligand_027
    44    46
SMALL
GAST_HUCK
****
This file was generated by PARSER (from files_GN.cpp)

@<TRIPOS>ATOM
      1 O1         13.0765    9.6338    4.4050 O.2         1 H52      -0.1497
      2 S5         12.3602    9.7864    2.9921 S.o2        1 H52       0.0732
      3 O2         11.9744   11.3225    3.1725 O.2         1 H52      -0.1497
      4 N21        10.8374    9.0359    2.9063 N.am        1 H52      -0.2257
      5 C22        10.3755    8.1822    3.9860 C.3         1 H52       0.0778
      6 C2M         9.6700    9.0400    5.0733 C.3         1 H52      -0.0402
      7 C23         9.4543    7.0136    3.5156 C.3         1 H52      -0.0136
      8 N24         9.9521    6.1837    2.3909 N.4         1 H52       0.2284
      9 C25        10.5348    6.8060    1.1761 C.3         1 H52      -0.0321
     10 C26         9.9637    8.1777    0.7112 C.3         1 H52       0.0045
     11 C27         9.9850    9.3211    1.7720 C.3         1 H52       0.0350
     12 C5         13.4337    9.6151    1.6065 C.ar        1 H52       0.1228
     13 C10        14.4178    8.5874    1.3530 C.ar        1 H52       0.0294
     14 C4         14.6264    7.3617    2.0887 C.ar        1 H52      -0.0110
     15 CM         13.7999    6.8444    3.2076 C.3         1 H52      -0.0231
     16 C9         15.2829    8.7973    0.2198 C.ar        1 H52       0.0043
     17 C8         15.1359    9.9011   -0.6452 C.ar        1 H52      -0.0481
     18 C7         14.1133   10.8236   -0.4337 C.ar        1 H52      -0.0552
     19 C6         13.2802   10.6805    0.6789 C.ar        1 H52      -0.0302
     20 C1         16.3161    7.8865   -0.0812 C.ar        1 H52       0.0104
     21 N2         16.4809    6.7794    0.6603 N.ar        1 H52      -0.3085
     22 C3         15.6864    6.5023    1.7084 C.ar        1 H52       0.0074
     23 H1         11.2290    7.7141    4.4849 H           1 H52       0.0564
     24 H2          9.3900    8.4142    5.9231 H           1 H52       0.0250
     25 H3          8.7707    9.5122    4.6723 H           1 H52       0.0250
     26 H4         10.3436    9.8225    5.4325 H           1 H52       0.0250
     27 H5          8.4755    7.4030    3.2246 H           1 H52       0.0832
     28 H6          9.2904    6.3345    4.3544 H           1 H52       0.0832
     29 H7          9.1559    5.6352    2.0662 H           1 H52       0.2014
     30 H8         10.6421    5.5295    2.7744 H           1 H52       0.2014
     31 H9         10.3873    6.0947    0.3601 H           1 H52       0.0814
     32 H10        11.6112    6.8955    1.3202 H           1 H52       0.0814
     33 H11         8.9353    8.0328    0.3620 H           1 H52       0.0333
     34 H12        10.5481    8.5006   -0.1588 H           1 H52       0.0333
     35 H13        10.2671   10.2500    1.2738 H           1 H52       0.0480
     36 H14         8.9646    9.4879    2.1299 H           1 H52       0.0480
     37 H15        13.9475    5.7780    3.3994 H           1 H52       0.0421
     38 H16        12.7472    6.9543    2.9644 H           1 H52       0.0421
     39 H17        14.0467    7.3736    4.1223 H           1 H52       0.0421
     40 H18        15.7504   10.0330   -1.4545 H           1 H52       0.0643
     41 H19        13.9892   11.6115   -1.0752 H           1 H52       0.0642
     42 H20        12.5651   11.4016    0.7996 H           1 H52       0.0657
     43 H21        16.9505    8.0344   -0.8711 H           1 H52       0.0786
     44 H22        15.8755    5.6318    2.2110 H           1 H52       0.0687
@<TRIPOS>BOND
     1     1     2   2
     2     2     3   2
     3     2     4  am
     4     2    12   1
     5     4     5   1
     6     4    11   1
     7     5     6   1
     8     5     7   1
     9     7     8   1
    10     8     9   1
    11     9    10   1
    12    10    11   1
    13    12    13  ar
    14    12    19  ar
    15    13    14  ar
    16    13    16  ar
    17    14    15   1
    18    14    22  ar
    19    16    17  ar
    20    16    20  ar
    21    17    18  ar
    22    18    19  ar
    23    20    21  ar
    24    21    22  ar
    25     5    23   1
    26     6    24   1
    27     6    25   1
    28     6    26   1
    29     7    27   1
    30     7    28   1
    31     8    29   1
    32     8    30   1
    33     9    31   1
    34     9    32   1
    35    10    33   1
    36    10    34   1
    37    11    35   1
    38    11    36   1
    39    15    37   1
    40    15    38   1
    41    15    39   1
    42    17    40   1
    43    18    41   1
    44    19    42   1
    45    20    43   1
    46    22    44   1
@<TRIPOS>SUBSTRUCTURE
     1  H52      5

