@<TRIPOS>MOLECULE
1q8u_ligand_003
    44    46
SMALL
GAST_HUCK
****
This file was generated by PARSER (from files_GN.cpp)

@<TRIPOS>ATOM
      1 O1         11.5625   11.8327    3.3474 O.2         1 H52      -0.1497
      2 S5         11.9913   10.9285    2.1060 S.o2        1 H52       0.0732
      3 O2         11.1648   11.5703    0.9029 O.2         1 H52      -0.1497
      4 N21        11.3745    9.3444    2.2812 N.am        1 H52      -0.2257
      5 C22        11.3266    8.4902    1.0983 C.3         1 H52       0.0778
      6 C2M        12.6597    7.7128    0.9032 C.3         1 H52      -0.0402
      7 C23        10.0849    7.5575    0.9916 C.3         1 H52      -0.0136
      8 N24        10.1474    6.3689    1.8707 N.4         1 H52       0.2284
      9 C25         9.7792    6.5935    3.2831 C.3         1 H52      -0.0321
     10 C26        10.7325    7.5599    4.0261 C.3         1 H52       0.0045
     11 C27        10.7001    9.0277    3.5219 C.3         1 H52       0.0350
     12 C5         13.7186   11.0849    1.8341 C.ar        1 H52       0.1228
     13 C10        14.3167   12.0543    0.9685 C.ar        1 H52       0.0294
     14 C4         13.8354   13.3892    0.7414 C.ar        1 H52      -0.0110
     15 CM         12.8671   14.0954    1.6255 C.3         1 H52      -0.0231
     16 C9         15.5317   11.6749    0.3053 C.ar        1 H52       0.0043
     17 C8         16.2185   10.4994    0.6723 C.ar        1 H52      -0.0481
     18 C7         15.7423    9.7092    1.7210 C.ar        1 H52      -0.0552
     19 C6         14.4871    9.9874    2.2822 C.ar        1 H52      -0.0302
     20 C1         16.0847   12.5075   -0.6910 C.ar        1 H52       0.0104
     21 N2         15.5430   13.7214   -0.9271 N.ar        1 H52      -0.3085
     22 C3         14.4694   14.1774   -0.2465 C.ar        1 H52       0.0074
     23 H1         11.2372    9.1248    0.2077 H           1 H52       0.0564
     24 H2         12.5436    6.9137    0.1678 H           1 H52       0.0250
     25 H3         12.9956    7.2693    1.8411 H           1 H52       0.0250
     26 H4         13.4344    8.3910    0.5405 H           1 H52       0.0250
     27 H5         10.0151    7.1759   -0.0329 H           1 H52       0.0832
     28 H6          9.1680    8.1241    1.1740 H           1 H52       0.0832
     29 H7         11.0815    5.9538    1.8159 H           1 H52       0.2014
     30 H8          9.4801    5.6943    1.4989 H           1 H52       0.2014
     31 H9          9.8060    5.6226    3.7822 H           1 H52       0.0814
     32 H10         8.7509    6.9579    3.3460 H           1 H52       0.0814
     33 H11        11.7521    7.1754    3.9890 H           1 H52       0.0333
     34 H12        10.4175    7.5578    5.0749 H           1 H52       0.0333
     35 H13         9.6572    9.3494    3.4297 H           1 H52       0.0480
     36 H14        11.1374    9.6104    4.3389 H           1 H52       0.0480
     37 H15        12.9981   15.1769    1.5933 H           1 H52       0.0421
     38 H16        13.0084   13.8026    2.6662 H           1 H52       0.0421
     39 H17        11.8446   13.8995    1.3151 H           1 H52       0.0421
     40 H18        17.1034   10.2433    0.2211 H           1 H52       0.0643
     41 H19        16.2691    8.8894    2.0263 H           1 H52       0.0642
     42 H20        14.1087    9.3246    2.9684 H           1 H52       0.0657
     43 H21        16.9162   12.2346   -1.2154 H           1 H52       0.0786
     44 H22        14.1425   15.1208   -0.4526 H           1 H52       0.0687
@<TRIPOS>BOND
     1     1     2   2
     2     2     3   2
     3     2     4  am
     4     2    12   1
     5     4     5   1
     6     4    11   1
     7     5     6   1
     8     5     7   1
     9     7     8   1
    10     8     9   1
    11     9    10   1
    12    10    11   1
    13    12    13  ar
    14    12    19  ar
    15    13    14  ar
    16    13    16  ar
    17    14    15   1
    18    14    22  ar
    19    16    17  ar
    20    16    20  ar
    21    17    18  ar
    22    18    19  ar
    23    20    21  ar
    24    21    22  ar
    25     5    23   1
    26     6    24   1
    27     6    25   1
    28     6    26   1
    29     7    27   1
    30     7    28   1
    31     8    29   1
    32     8    30   1
    33     9    31   1
    34     9    32   1
    35    10    33   1
    36    10    34   1
    37    11    35   1
    38    11    36   1
    39    15    37   1
    40    15    38   1
    41    15    39   1
    42    17    40   1
    43    18    41   1
    44    19    42   1
    45    20    43   1
    46    22    44   1
@<TRIPOS>SUBSTRUCTURE
     1  H52      5

