@<TRIPOS>MOLECULE
1q8u_ligand_064
    44    46
SMALL
GAST_HUCK
****
This file was generated by PARSER (from files_GN.cpp)

@<TRIPOS>ATOM
      1 O1         15.7671    8.4142    0.4835 O.2         1 H52      -0.1497
      2 S5         15.4968    9.3392    1.7395 S.o2        1 H52       0.0732
      3 O2         16.9657    9.8095    2.1481 O.2         1 H52      -0.1497
      4 N21        14.9515    8.2767    2.9571 N.am        1 H52      -0.2257
      5 C22        14.0332    7.2088    2.5684 C.3         1 H52       0.0778
      6 C2M        14.7853    5.9340    2.0783 C.3         1 H52      -0.0402
      7 C23        12.9572    6.8501    3.6382 C.3         1 H52      -0.0136
      8 N24        13.4895    5.9969    4.7168 N.4         1 H52       0.2284
      9 C25        14.2731    6.6548    5.7801 C.3         1 H52      -0.0321
     10 C26        15.5322    7.4097    5.2842 C.3         1 H52       0.0045
     11 C27        15.2367    8.6084    4.3405 C.3         1 H52       0.0350
     12 C5         14.5436   10.7849    1.3857 C.ar        1 H52       0.1228
     13 C10        14.8937   11.8784    0.5090 C.ar        1 H52       0.0294
     14 C4         15.9228   11.9000   -0.4997 C.ar        1 H52      -0.0110
     15 CM         16.6641   10.7279   -1.0359 C.3         1 H52      -0.0231
     16 C9         14.1280   13.0927    0.6510 C.ar        1 H52       0.0043
     17 C8         13.0208   13.1832    1.5195 C.ar        1 H52      -0.0481
     18 C7         12.6469   12.0802    2.2894 C.ar        1 H52      -0.0552
     19 C6         13.4073   10.9058    2.2248 C.ar        1 H52      -0.0302
     20 C1         14.4719   14.2543   -0.0705 C.ar        1 H52       0.0104
     21 N2         15.5198   14.2437   -0.9092 N.ar        1 H52      -0.3085
     22 C3         16.2189   13.1210   -1.1602 C.ar        1 H52       0.0074
     23 H1         13.4485    7.5570    1.7108 H           1 H52       0.0564
     24 H2         14.1150    5.0762    2.0368 H           1 H52       0.0250
     25 H3         15.5978    5.6739    2.7476 H           1 H52       0.0250
     26 H4         15.2043    6.0761    1.0857 H           1 H52       0.0250
     27 H5         12.1582    6.2858    3.1499 H           1 H52       0.0832
     28 H6         12.4985    7.7555    4.0430 H           1 H52       0.0832
     29 H7         14.0851    5.2887    4.2885 H           1 H52       0.2014
     30 H8         12.6982    5.5158    5.1463 H           1 H52       0.2014
     31 H9         14.5910    5.8631    6.4610 H           1 H52       0.0814
     32 H10        13.6273    7.3316    6.3425 H           1 H52       0.0814
     33 H11        16.2149    6.7135    4.7934 H           1 H52       0.0333
     34 H12        16.0513    7.7912    6.1686 H           1 H52       0.0333
     35 H13        14.3972    9.1775    4.7450 H           1 H52       0.0480
     36 H14        16.1034    9.2687    4.4040 H           1 H52       0.0480
     37 H15        17.2948   10.9598   -1.8995 H           1 H52       0.0421
     38 H16        15.9484    9.9768   -1.3700 H           1 H52       0.0421
     39 H17        17.3286   10.3211   -0.2818 H           1 H52       0.0421
     40 H18        12.4779   14.0476    1.6051 H           1 H52       0.0643
     41 H19        11.8472   12.1476    2.9232 H           1 H52       0.0642
     42 H20        13.1143   10.1484    2.8416 H           1 H52       0.0657
     43 H21        13.9529   15.1310    0.0366 H           1 H52       0.0786
     44 H22        16.9666   13.1874   -1.8505 H           1 H52       0.0687
@<TRIPOS>BOND
     1     1     2   2
     2     2     3   2
     3     2     4  am
     4     2    12   1
     5     4     5   1
     6     4    11   1
     7     5     6   1
     8     5     7   1
     9     7     8   1
    10     8     9   1
    11     9    10   1
    12    10    11   1
    13    12    13  ar
    14    12    19  ar
    15    13    14  ar
    16    13    16  ar
    17    14    15   1
    18    14    22  ar
    19    16    17  ar
    20    16    20  ar
    21    17    18  ar
    22    18    19  ar
    23    20    21  ar
    24    21    22  ar
    25     5    23   1
    26     6    24   1
    27     6    25   1
    28     6    26   1
    29     7    27   1
    30     7    28   1
    31     8    29   1
    32     8    30   1
    33     9    31   1
    34     9    32   1
    35    10    33   1
    36    10    34   1
    37    11    35   1
    38    11    36   1
    39    15    37   1
    40    15    38   1
    41    15    39   1
    42    17    40   1
    43    18    41   1
    44    19    42   1
    45    20    43   1
    46    22    44   1
@<TRIPOS>SUBSTRUCTURE
     1  H52      5

