@<TRIPOS>MOLECULE
1q8u_ligand_063
    44    46
SMALL
GAST_HUCK
****
This file was generated by PARSER (from files_GN.cpp)

@<TRIPOS>ATOM
      1 O1         14.5996   12.0766   -3.3000 O.2         1 H52      -0.1497
      2 S5         14.4590   11.2997   -1.9207 S.o2        1 H52       0.0732
      3 O2         13.0800   10.5389   -2.1382 O.2         1 H52      -0.1497
      4 N21        14.2000   12.5312   -0.7590 N.am        1 H52      -0.2257
      5 C22        13.2962   12.3241    0.3711 C.3         1 H52       0.0778
      6 C2M        13.9544   11.4414    1.4726 C.3         1 H52      -0.0402
      7 C23        12.7112   13.6125    1.0272 C.3         1 H52      -0.0136
      8 N24        11.9638   14.4278    0.0509 N.4         1 H52       0.2284
      9 C25        12.7389   15.3961   -0.7539 C.3         1 H52      -0.0321
     10 C26        13.7850   14.7739   -1.7142 C.3         1 H52       0.0045
     11 C27        14.7988   13.8192   -1.0274 C.3         1 H52       0.0350
     12 C5         15.7402   10.1260   -1.6412 C.ar        1 H52       0.1228
     13 C10        16.0389    8.9242   -2.3988 C.ar        1 H52       0.0294
     14 C4         15.7358    8.6837   -3.7860 C.ar        1 H52      -0.0110
     15 CM         15.2082    9.6870   -4.7376 C.3         1 H52      -0.0231
     16 C9         16.7573    7.8912   -1.7115 C.ar        1 H52       0.0043
     17 C8         17.2286    8.0599   -0.4008 C.ar        1 H52      -0.0481
     18 C7         17.0851    9.2935    0.2418 C.ar        1 H52      -0.0552
     19 C6         16.3778   10.3229   -0.3915 C.ar        1 H52      -0.0302
     20 C1         17.0493    6.6610   -2.3526 C.ar        1 H52       0.0104
     21 N2         16.7277    6.4879   -3.6466 N.ar        1 H52      -0.3085
     22 C3         16.0999    7.4372   -4.3618 C.ar        1 H52       0.0074
     23 H1         12.4261   11.7656    0.0166 H           1 H52       0.0564
     24 H2         13.2938   11.3467    2.3398 H           1 H52       0.0250
     25 H3         14.8946   11.8868    1.8050 H           1 H52       0.0250
     26 H4         14.1589   10.4340    1.1020 H           1 H52       0.0250
     27 H5         13.4923   14.1985    1.5212 H           1 H52       0.0832
     28 H6         11.9964   13.3296    1.8038 H           1 H52       0.0832
     29 H7         11.2676   14.9602    0.5733 H           1 H52       0.2014
     30 H8         11.4694   13.7953   -0.5783 H           1 H52       0.2014
     31 H9         13.2389   16.0986   -0.0913 H           1 H52       0.0814
     32 H10        12.0234   15.9662   -1.3507 H           1 H52       0.0814
     33 H11        14.3379   15.5939   -2.1830 H           1 H52       0.0333
     34 H12        13.2554   14.2465   -2.5121 H           1 H52       0.0333
     35 H13        15.6682   13.7135   -1.6809 H           1 H52       0.0480
     36 H14        15.1836   14.2691   -0.1111 H           1 H52       0.0480
     37 H15        15.2063    9.3481   -5.7725 H           1 H52       0.0421
     38 H16        15.8439   10.5689   -4.7127 H           1 H52       0.0421
     39 H17        14.1798    9.9364   -4.4955 H           1 H52       0.0421
     40 H18        17.7332    7.3130    0.0882 H           1 H52       0.0643
     41 H19        17.4679    9.4308    1.1825 H           1 H52       0.0642
     42 H20        16.2830   11.2015    0.1271 H           1 H52       0.0657
     43 H21        17.5378    5.9062   -1.8745 H           1 H52       0.0786
     44 H22        15.9316    7.2275   -5.3492 H           1 H52       0.0687
@<TRIPOS>BOND
     1     1     2   2
     2     2     3   2
     3     2     4  am
     4     2    12   1
     5     4     5   1
     6     4    11   1
     7     5     6   1
     8     5     7   1
     9     7     8   1
    10     8     9   1
    11     9    10   1
    12    10    11   1
    13    12    13  ar
    14    12    19  ar
    15    13    14  ar
    16    13    16  ar
    17    14    15   1
    18    14    22  ar
    19    16    17  ar
    20    16    20  ar
    21    17    18  ar
    22    18    19  ar
    23    20    21  ar
    24    21    22  ar
    25     5    23   1
    26     6    24   1
    27     6    25   1
    28     6    26   1
    29     7    27   1
    30     7    28   1
    31     8    29   1
    32     8    30   1
    33     9    31   1
    34     9    32   1
    35    10    33   1
    36    10    34   1
    37    11    35   1
    38    11    36   1
    39    15    37   1
    40    15    38   1
    41    15    39   1
    42    17    40   1
    43    18    41   1
    44    19    42   1
    45    20    43   1
    46    22    44   1
@<TRIPOS>SUBSTRUCTURE
     1  H52      5

