@<TRIPOS>MOLECULE
1q8u_ligand_085
    44    46
SMALL
GAST_HUCK
****
This file was generated by PARSER (from files_GN.cpp)

@<TRIPOS>ATOM
      1 O1          8.9468   11.3657    3.6873 O.2         1 H52      -0.1497
      2 S5          7.8023   10.3587    3.2531 S.o2        1 H52       0.0732
      3 O2          6.6000   11.4095    3.2348 O.2         1 H52      -0.1497
      4 N21         7.3852    9.2343    4.4652 N.am        1 H52      -0.2257
      5 C22         7.9312    7.8816    4.4747 C.3         1 H52       0.0778
      6 C2M         7.8962    7.0960    3.1282 C.3         1 H52      -0.0402
      7 C23         9.3385    7.7601    5.1373 C.3         1 H52      -0.0136
      8 N24         9.7621    8.8377    6.0553 N.4         1 H52       0.2284
      9 C25         8.8502    9.2041    7.1585 C.3         1 H52      -0.0321
     10 C26         7.7929   10.2514    6.7273 C.3         1 H52       0.0045
     11 C27         6.7705    9.7294    5.6866 C.3         1 H52       0.0350
     12 C5          7.7024    9.8169    1.5748 C.ar        1 H52       0.1228
     13 C10         8.7644    9.7545    0.5998 C.ar        1 H52       0.0294
     14 C4         10.1765    9.9150    0.8272 C.ar        1 H52      -0.0110
     15 CM         10.8974    9.8710    2.1267 C.3         1 H52      -0.0231
     16 C9          8.3666    9.4982   -0.7560 C.ar        1 H52       0.0043
     17 C8          7.0411    9.1593   -1.0943 C.ar        1 H52      -0.0481
     18 C7          6.0626    9.0971   -0.1065 C.ar        1 H52      -0.0552
     19 C6          6.3885    9.4434    1.2064 C.ar        1 H52      -0.0302
     20 C1          9.2998    9.5597   -1.8044 C.ar        1 H52       0.0104
     21 N2         10.5878    9.8362   -1.5458 N.ar        1 H52      -0.3085
     22 C3         11.0435   10.0077   -0.2896 C.ar        1 H52       0.0074
     23 H1          7.2625    7.2943    5.1112 H           1 H52       0.0564
     24 H2          8.1234    6.0389    3.2998 H           1 H52       0.0250
     25 H3          8.6393    7.4755    2.4208 H           1 H52       0.0250
     26 H4          6.9050    7.1580    2.6759 H           1 H52       0.0250
     27 H5         10.1151    7.6930    4.3716 H           1 H52       0.0832
     28 H6          9.3855    6.8105    5.6821 H           1 H52       0.0832
     29 H7          9.9753    9.6749    5.5079 H           1 H52       0.2014
     30 H8         10.6212    8.4924    6.4804 H           1 H52       0.2014
     31 H9          9.4627    9.6463    7.9435 H           1 H52       0.0814
     32 H10         8.3740    8.3132    7.5765 H           1 H52       0.0814
     33 H11         8.3095   11.1295    6.3243 H           1 H52       0.0333
     34 H12         7.2475   10.5746    7.6218 H           1 H52       0.0333
     35 H13         6.1745    8.9393    6.1551 H           1 H52       0.0480
     36 H14         6.0637   10.5368    5.4801 H           1 H52       0.0480
     37 H15        11.8271    9.2913    2.0437 H           1 H52       0.0421
     38 H16        10.3110    9.3743    2.8962 H           1 H52       0.0421
     39 H17        11.1494   10.8912    2.4421 H           1 H52       0.0421
     40 H18         6.7800    8.9405   -2.0605 H           1 H52       0.0643
     41 H19         5.1008    8.8458   -0.3492 H           1 H52       0.0642
     42 H20         5.6278    9.4231    1.8949 H           1 H52       0.0657
     43 H21         9.0300    9.4144   -2.7802 H           1 H52       0.0786
     44 H22        12.0410   10.1663   -0.1715 H           1 H52       0.0687
@<TRIPOS>BOND
     1     1     2   2
     2     2     3   2
     3     2     4  am
     4     2    12   1
     5     4     5   1
     6     4    11   1
     7     5     6   1
     8     5     7   1
     9     7     8   1
    10     8     9   1
    11     9    10   1
    12    10    11   1
    13    12    13  ar
    14    12    19  ar
    15    13    14  ar
    16    13    16  ar
    17    14    15   1
    18    14    22  ar
    19    16    17  ar
    20    16    20  ar
    21    17    18  ar
    22    18    19  ar
    23    20    21  ar
    24    21    22  ar
    25     5    23   1
    26     6    24   1
    27     6    25   1
    28     6    26   1
    29     7    27   1
    30     7    28   1
    31     8    29   1
    32     8    30   1
    33     9    31   1
    34     9    32   1
    35    10    33   1
    36    10    34   1
    37    11    35   1
    38    11    36   1
    39    15    37   1
    40    15    38   1
    41    15    39   1
    42    17    40   1
    43    18    41   1
    44    19    42   1
    45    20    43   1
    46    22    44   1
@<TRIPOS>SUBSTRUCTURE
     1  H52      5

