@<TRIPOS>MOLECULE
1q8u_ligand_087
    44    46
SMALL
GAST_HUCK
****
This file was generated by PARSER (from files_GN.cpp)

@<TRIPOS>ATOM
      1 O1         12.2942   11.0692   -1.0999 O.2         1 H52      -0.1497
      2 S5         13.6412   11.1840   -0.2601 S.o2        1 H52       0.0732
      3 O2         13.2581   10.3142    1.0110 O.2         1 H52      -0.1497
      4 N21        13.7516   12.8400    0.1227 N.am        1 H52      -0.2257
      5 C22        12.5821   13.5371    0.6470 C.3         1 H52       0.0778
      6 C2M        12.7084   13.7179    2.1840 C.3         1 H52      -0.0402
      7 C23        12.2654   14.9040   -0.0413 C.3         1 H52      -0.0136
      8 N24        12.4715   14.8921   -1.5098 N.4         1 H52       0.2284
      9 C25        13.8391   15.1867   -1.9919 C.3         1 H52      -0.0321
     10 C26        14.8593   14.0522   -1.7311 C.3         1 H52       0.0045
     11 C27        14.9313   13.5824   -0.2572 C.3         1 H52       0.0350
     12 C5         14.9878   10.4851   -1.1745 C.ar        1 H52       0.1228
     13 C10        16.3660   10.3719   -0.7513 C.ar        1 H52       0.0294
     14 C4         16.8768   10.4729    0.5949 C.ar        1 H52      -0.0110
     15 CM         16.0564   10.4932    1.8335 C.3         1 H52      -0.0231
     16 C9         17.3415   10.1567   -1.7860 C.ar        1 H52       0.0043
     17 C8         16.9744    9.9265   -3.1276 C.ar        1 H52      -0.0481
     18 C7         15.6325    9.9056   -3.4895 C.ar        1 H52      -0.0552
     19 C6         14.6588   10.1901   -2.5267 C.ar        1 H52      -0.0302
     20 C1         18.7198   10.1730   -1.4911 C.ar        1 H52       0.0104
     21 N2         19.1418   10.3351   -0.2236 N.ar        1 H52      -0.3085
     22 C3         18.2795   10.4738    0.8003 C.ar        1 H52       0.0074
     23 H1         11.6906   12.9200    0.4885 H           1 H52       0.0564
     24 H2         11.7936   14.1534    2.5932 H           1 H52       0.0250
     25 H3         13.5398   14.3821    2.4196 H           1 H52       0.0250
     26 H4         12.8773   12.7540    2.6695 H           1 H52       0.0250
     27 H5         12.8513   15.7086    0.4052 H           1 H52       0.0832
     28 H6         11.2143   15.1466    0.1353 H           1 H52       0.0832
     29 H7         11.8553   15.6021   -1.9162 H           1 H52       0.2014
     30 H8         12.1919   13.9792   -1.8710 H           1 H52       0.2014
     31 H9         14.1941   16.1202   -1.5475 H           1 H52       0.0814
     32 H10        13.7782   15.3503   -3.0709 H           1 H52       0.0814
     33 H11        15.8462   14.4148   -2.0238 H           1 H52       0.0333
     34 H12        14.6186   13.2024   -2.3756 H           1 H52       0.0333
     35 H13        15.8277   12.9781   -0.1324 H           1 H52       0.0480
     36 H14        15.0726   14.4501    0.3910 H           1 H52       0.0480
     37 H15        16.6537   10.5041    2.7502 H           1 H52       0.0421
     38 H16        15.4386    9.5928    1.8741 H           1 H52       0.0421
     39 H17        15.4366   11.3880    1.8658 H           1 H52       0.0421
     40 H18        17.6792    9.7581   -3.8539 H           1 H52       0.0643
     41 H19        15.3642    9.7209   -4.4591 H           1 H52       0.0642
     42 H20        13.6949   10.2052   -2.8601 H           1 H52       0.0657
     43 H21        19.4302   10.0590   -2.2175 H           1 H52       0.0786
     44 H22        18.6838   10.5614    1.7340 H           1 H52       0.0687
@<TRIPOS>BOND
     1     1     2   2
     2     2     3   2
     3     2     4  am
     4     2    12   1
     5     4     5   1
     6     4    11   1
     7     5     6   1
     8     5     7   1
     9     7     8   1
    10     8     9   1
    11     9    10   1
    12    10    11   1
    13    12    13  ar
    14    12    19  ar
    15    13    14  ar
    16    13    16  ar
    17    14    15   1
    18    14    22  ar
    19    16    17  ar
    20    16    20  ar
    21    17    18  ar
    22    18    19  ar
    23    20    21  ar
    24    21    22  ar
    25     5    23   1
    26     6    24   1
    27     6    25   1
    28     6    26   1
    29     7    27   1
    30     7    28   1
    31     8    29   1
    32     8    30   1
    33     9    31   1
    34     9    32   1
    35    10    33   1
    36    10    34   1
    37    11    35   1
    38    11    36   1
    39    15    37   1
    40    15    38   1
    41    15    39   1
    42    17    40   1
    43    18    41   1
    44    19    42   1
    45    20    43   1
    46    22    44   1
@<TRIPOS>SUBSTRUCTURE
     1  H52      5

