@<TRIPOS>MOLECULE
1q8u_ligand_060
    44    46
SMALL
GAST_HUCK
****
This file was generated by PARSER (from files_GN.cpp)

@<TRIPOS>ATOM
      1 O1         17.1024    6.8299    0.4105 O.2         1 H52      -0.1497
      2 S5         16.8743    8.2926    0.9924 S.o2        1 H52       0.0732
      3 O2         18.3479    8.9003    0.9846 O.2         1 H52      -0.1497
      4 N21        16.4163    7.9426    2.5970 N.am        1 H52      -0.2257
      5 C22        15.0035    7.7191    2.8932 C.3         1 H52       0.0778
      6 C2M        14.5671    6.2706    2.5295 C.3         1 H52      -0.0402
      7 C23        14.5864    8.0299    4.3647 C.3         1 H52      -0.0136
      8 N24        15.1246    9.3001    4.9070 N.4         1 H52       0.2284
      9 C25        16.4890    9.2367    5.4805 C.3         1 H52      -0.0321
     10 C26        17.6333    8.9880    4.4650 C.3         1 H52       0.0045
     11 C27        17.4405    7.7213    3.5908 C.3         1 H52       0.0350
     12 C5         15.9799    9.5522    0.1292 C.ar        1 H52       0.1228
     13 C10        15.7689    9.7476   -1.2887 C.ar        1 H52       0.0294
     14 C4         16.1957    8.8949   -2.3734 C.ar        1 H52      -0.0110
     15 CM         16.8656    7.5715   -2.2443 C.3         1 H52      -0.0231
     16 C9         15.0643   10.9422   -1.6850 C.ar        1 H52       0.0043
     17 C8         14.5951   11.8825   -0.7486 C.ar        1 H52      -0.0481
     18 C7         14.8356   11.6901    0.6097 C.ar        1 H52      -0.0552
     19 C6         15.5344   10.5581    1.0289 C.ar        1 H52      -0.0302
     20 C1         14.8230   11.2335   -3.0473 C.ar        1 H52       0.0104
     21 N2         15.2725   10.4156   -4.0114 N.ar        1 H52      -0.3085
     22 C3         15.9423    9.2850   -3.7168 C.ar        1 H52       0.0074
     23 H1         14.4082    8.3933    2.2689 H           1 H52       0.0564
     24 H2         13.5355    6.0899    2.8420 H           1 H52       0.0250
     25 H3         15.2131    5.5433    3.0278 H           1 H52       0.0250
     26 H4         14.6239    6.1049    1.4545 H           1 H52       0.0250
     27 H5         14.8624    7.1987    5.0223 H           1 H52       0.0832
     28 H6         13.4967    8.1027    4.4024 H           1 H52       0.0832
     29 H7         14.5048    9.5716    5.6693 H           1 H52       0.2014
     30 H8         15.0901   10.0408    4.2093 H           1 H52       0.2014
     31 H9         16.5200    8.4698    6.2606 H           1 H52       0.0814
     32 H10        16.6771   10.1967    5.9654 H           1 H52       0.0814
     33 H11        18.5606    8.8848    5.0311 H           1 H52       0.0333
     34 H12        17.7470    9.8583    3.8180 H           1 H52       0.0333
     35 H13        18.4008    7.4607    3.1327 H           1 H52       0.0480
     36 H14        17.1792    6.8665    4.2184 H           1 H52       0.0480
     37 H15        17.1161    7.0994   -3.2066 H           1 H52       0.0421
     38 H16        16.1748    6.8859   -1.7455 H           1 H52       0.0421
     39 H17        17.8096    7.6781   -1.7042 H           1 H52       0.0421
     40 H18        14.0978   12.7291   -1.0429 H           1 H52       0.0643
     41 H19        14.5123   12.3866    1.2915 H           1 H52       0.0642
     42 H20        15.7186   10.4953    2.0306 H           1 H52       0.0657
     43 H21        14.3199   12.0809   -3.3341 H           1 H52       0.0786
     44 H22        16.2434    8.7082   -4.5106 H           1 H52       0.0687
@<TRIPOS>BOND
     1     1     2   2
     2     2     3   2
     3     2     4  am
     4     2    12   1
     5     4     5   1
     6     4    11   1
     7     5     6   1
     8     5     7   1
     9     7     8   1
    10     8     9   1
    11     9    10   1
    12    10    11   1
    13    12    13  ar
    14    12    19  ar
    15    13    14  ar
    16    13    16  ar
    17    14    15   1
    18    14    22  ar
    19    16    17  ar
    20    16    20  ar
    21    17    18  ar
    22    18    19  ar
    23    20    21  ar
    24    21    22  ar
    25     5    23   1
    26     6    24   1
    27     6    25   1
    28     6    26   1
    29     7    27   1
    30     7    28   1
    31     8    29   1
    32     8    30   1
    33     9    31   1
    34     9    32   1
    35    10    33   1
    36    10    34   1
    37    11    35   1
    38    11    36   1
    39    15    37   1
    40    15    38   1
    41    15    39   1
    42    17    40   1
    43    18    41   1
    44    19    42   1
    45    20    43   1
    46    22    44   1
@<TRIPOS>SUBSTRUCTURE
     1  H52      5

