@<TRIPOS>MOLECULE
1q8u_ligand_043
    44    46
SMALL
GAST_HUCK
****
This file was generated by PARSER (from files_GN.cpp)

@<TRIPOS>ATOM
      1 O1         13.5487    9.1526    4.3292 O.2         1 H52      -0.1497
      2 S5         14.2180    9.3352    2.8980 S.o2        1 H52       0.0732
      3 O2         13.4820    8.2341    2.0205 O.2         1 H52      -0.1497
      4 N21        15.8281    8.8810    3.1903 N.am        1 H52      -0.2257
      5 C22        16.1197    7.4814    3.4702 C.3         1 H52       0.0778
      6 C2M        16.8904    6.8163    2.2938 C.3         1 H52      -0.0402
      7 C23        16.8028    7.2342    4.8558 C.3         1 H52      -0.0136
      8 N24        18.0889    7.9414    5.0416 N.4         1 H52       0.2284
      9 C25        18.0209    9.3242    5.5645 C.3         1 H52      -0.0321
     10 C26        17.0712   10.2962    4.8082 C.3         1 H52       0.0045
     11 C27        16.8320    9.9129    3.3301 C.3         1 H52       0.0350
     12 C5         13.7966   10.9149    2.2225 C.ar        1 H52       0.1228
     13 C10        14.4363   11.5988    1.1197 C.ar        1 H52       0.0294
     14 C4         15.3503   11.0369    0.1503 C.ar        1 H52      -0.0110
     15 CM         15.5981    9.5904   -0.0598 C.3         1 H52      -0.0231
     16 C9         14.1394   12.9986    0.9669 C.ar        1 H52       0.0043
     17 C8         13.1502   13.6352    1.7503 C.ar        1 H52      -0.0481
     18 C7         12.4473   12.9139    2.7147 C.ar        1 H52      -0.0552
     19 C6         12.7717   11.5801    2.9491 C.ar        1 H52      -0.0302
     20 C1         14.8314   13.7813    0.0167 C.ar        1 H52       0.0104
     21 N2         15.7654   13.2249   -0.7761 N.ar        1 H52      -0.3085
     22 C3         16.0257   11.9033   -0.7428 C.ar        1 H52       0.0074
     23 H1         15.1774    6.9242    3.5414 H           1 H52       0.0564
     24 H2         17.0305    5.7553    2.5019 H           1 H52       0.0250
     25 H3         17.8672    7.2771    2.1510 H           1 H52       0.0250
     26 H4         16.3265    6.8917    1.3639 H           1 H52       0.0250
     27 H5         17.0126    6.1658    4.9608 H           1 H52       0.0832
     28 H6         16.1152    7.4936    5.6714 H           1 H52       0.0832
     29 H7         18.5822    7.9696    4.1511 H           1 H52       0.2014
     30 H8         18.6536    7.3972    5.6976 H           1 H52       0.2014
     31 H9         19.0363    9.7290    5.5153 H           1 H52       0.0814
     32 H10        17.7351    9.2911    6.6228 H           1 H52       0.0814
     33 H11        17.5020   11.3007    4.8473 H           1 H52       0.0333
     34 H12        16.1089   10.3387    5.3271 H           1 H52       0.0333
     35 H13        16.5431   10.8208    2.8018 H           1 H52       0.0480
     36 H14        17.7729    9.5977    2.8719 H           1 H52       0.0480
     37 H15        16.0638    9.3737   -1.0219 H           1 H52       0.0421
     38 H16        14.6629    9.0360   -0.0378 H           1 H52       0.0421
     39 H17        16.2770    9.2433    0.6983 H           1 H52       0.0421
     40 H18        12.9327   14.6297    1.6198 H           1 H52       0.0643
     41 H19        11.7198   13.3750    3.2653 H           1 H52       0.0642
     42 H20        12.2501   11.1124    3.6864 H           1 H52       0.0657
     43 H21        14.6488   14.7773   -0.0804 H           1 H52       0.0786
     44 H22        16.7090   11.5505   -1.4120 H           1 H52       0.0687
@<TRIPOS>BOND
     1     1     2   2
     2     2     3   2
     3     2     4  am
     4     2    12   1
     5     4     5   1
     6     4    11   1
     7     5     6   1
     8     5     7   1
     9     7     8   1
    10     8     9   1
    11     9    10   1
    12    10    11   1
    13    12    13  ar
    14    12    19  ar
    15    13    14  ar
    16    13    16  ar
    17    14    15   1
    18    14    22  ar
    19    16    17  ar
    20    16    20  ar
    21    17    18  ar
    22    18    19  ar
    23    20    21  ar
    24    21    22  ar
    25     5    23   1
    26     6    24   1
    27     6    25   1
    28     6    26   1
    29     7    27   1
    30     7    28   1
    31     8    29   1
    32     8    30   1
    33     9    31   1
    34     9    32   1
    35    10    33   1
    36    10    34   1
    37    11    35   1
    38    11    36   1
    39    15    37   1
    40    15    38   1
    41    15    39   1
    42    17    40   1
    43    18    41   1
    44    19    42   1
    45    20    43   1
    46    22    44   1
@<TRIPOS>SUBSTRUCTURE
     1  H52      5

