@<TRIPOS>MOLECULE
1q8u_ligand_050
    44    46
SMALL
GAST_HUCK
****
This file was generated by PARSER (from files_GN.cpp)

@<TRIPOS>ATOM
      1 O1         14.9836    9.1580    3.6480 O.2         1 H52      -0.1497
      2 S5         16.5040    8.6909    3.6443 S.o2        1 H52       0.0732
      3 O2         17.0890   10.0632    3.0861 O.2         1 H52      -0.1497
      4 N21        16.6820    7.5813    2.3614 N.am        1 H52      -0.2257
      5 C22        15.5799    6.7224    1.9608 C.3         1 H52       0.0778
      6 C2M        14.8464    6.0108    3.1305 C.3         1 H52      -0.0402
      7 C23        14.5857    7.4576    1.0057 C.3         1 H52      -0.0136
      8 N24        15.1837    8.4605    0.1048 N.4         1 H52       0.2284
      9 C25        16.4255    8.0891   -0.6183 C.3         1 H52      -0.0321
     10 C26        17.6775    8.4589    0.2072 C.3         1 H52       0.0045
     11 C27        17.8576    7.6492    1.5175 C.3         1 H52       0.0350
     12 C5         17.4829    8.4156    5.0892 C.ar        1 H52       0.1228
     13 C10        17.4810    9.2214    6.2767 C.ar        1 H52       0.0294
     14 C4         16.3478    9.9038    6.8251 C.ar        1 H52      -0.0110
     15 CM         14.9369    9.5270    6.5693 C.3         1 H52      -0.0231
     16 C9         18.7160    9.3376    7.0025 C.ar        1 H52       0.0043
     17 C8         19.8407    8.5596    6.6616 C.ar        1 H52      -0.0481
     18 C7         19.7603    7.6465    5.6061 C.ar        1 H52      -0.0552
     19 C6         18.5888    7.5633    4.8494 C.ar        1 H52      -0.0302
     20 C1         18.8237   10.2424    8.0807 C.ar        1 H52       0.0104
     21 N2         17.7568   10.9714    8.4593 N.ar        1 H52      -0.3085
     22 C3         16.5475   10.8335    7.8737 C.ar        1 H52       0.0074
     23 H1         15.9934    5.8950    1.3758 H           1 H52       0.0564
     24 H2         14.1705    5.2444    2.7426 H           1 H52       0.0250
     25 H3         14.2534    6.7139    3.7170 H           1 H52       0.0250
     26 H4         15.5743    5.5330    3.7908 H           1 H52       0.0250
     27 H5         13.8255    7.9774    1.5931 H           1 H52       0.0832
     28 H6         14.0611    6.7167    0.3950 H           1 H52       0.0832
     29 H7         15.3752    9.3073    0.6454 H           1 H52       0.2014
     30 H8         14.4793    8.6906   -0.5958 H           1 H52       0.2014
     31 H9         16.4431    8.6609   -1.5469 H           1 H52       0.0814
     32 H10        16.4298    7.0269   -0.8838 H           1 H52       0.0814
     33 H11        17.6412    9.5243    0.4494 H           1 H52       0.0333
     34 H12        18.5614    8.3011   -0.4189 H           1 H52       0.0333
     35 H13        18.1697    6.6331    1.2660 H           1 H52       0.0480
     36 H14        18.7004    8.0925    2.0485 H           1 H52       0.0480
     37 H15        14.3574    9.5021    7.4980 H           1 H52       0.0421
     38 H16        14.8678    8.5235    6.1535 H           1 H52       0.0421
     39 H17        14.4740   10.2714    5.9242 H           1 H52       0.0421
     40 H18        20.7184    8.6361    7.1818 H           1 H52       0.0643
     41 H19        20.5731    7.0828    5.3515 H           1 H52       0.0642
     42 H20        18.5989    6.9064    4.0676 H           1 H52       0.0657
     43 H21        19.7050   10.3619    8.5876 H           1 H52       0.0786
     44 H22        15.7663   11.3612    8.2638 H           1 H52       0.0687
@<TRIPOS>BOND
     1     1     2   2
     2     2     3   2
     3     2     4  am
     4     2    12   1
     5     4     5   1
     6     4    11   1
     7     5     6   1
     8     5     7   1
     9     7     8   1
    10     8     9   1
    11     9    10   1
    12    10    11   1
    13    12    13  ar
    14    12    19  ar
    15    13    14  ar
    16    13    16  ar
    17    14    15   1
    18    14    22  ar
    19    16    17  ar
    20    16    20  ar
    21    17    18  ar
    22    18    19  ar
    23    20    21  ar
    24    21    22  ar
    25     5    23   1
    26     6    24   1
    27     6    25   1
    28     6    26   1
    29     7    27   1
    30     7    28   1
    31     8    29   1
    32     8    30   1
    33     9    31   1
    34     9    32   1
    35    10    33   1
    36    10    34   1
    37    11    35   1
    38    11    36   1
    39    15    37   1
    40    15    38   1
    41    15    39   1
    42    17    40   1
    43    18    41   1
    44    19    42   1
    45    20    43   1
    46    22    44   1
@<TRIPOS>SUBSTRUCTURE
     1  H52      5

