@<TRIPOS>MOLECULE
1q8u_ligand_001
    44    46
SMALL
GAST_HUCK
****
This file was generated by PARSER (from files_GN.cpp)

@<TRIPOS>ATOM
      1 O1         18.8307    8.0299    0.5408 O.2         1 H52      -0.1497
      2 S5         17.2973    8.4247    0.4305 S.o2        1 H52       0.0732
      3 O2         16.8435    7.0093   -0.1419 O.2         1 H52      -0.1497
      4 N21        16.9808    9.5568   -0.8009 N.am        1 H52      -0.2257
      5 C22        15.6557   10.1510   -0.9134 C.3         1 H52       0.0778
      6 C2M        15.5529   11.3991    0.0056 C.3         1 H52      -0.0402
      7 C23        15.2070   10.5245   -2.3697 C.3         1 H52      -0.0136
      8 N24        15.1847    9.4131   -3.3480 N.4         1 H52       0.2284
      9 C25        16.2376    8.3729   -3.3094 C.3         1 H52      -0.0321
     10 C26        17.6994    8.8565   -3.0998 C.3         1 H52       0.0045
     11 C27        17.9635    9.7442   -1.8459 C.3         1 H52       0.0350
     12 C5         16.6645    8.6433    2.0635 C.ar        1 H52       0.1228
     13 C10        17.0629    9.5992    3.0662 C.ar        1 H52       0.0294
     14 C4         17.9908   10.7004    2.9125 C.ar        1 H52      -0.0110
     15 CM         18.7352   11.0561    1.6717 C.3         1 H52      -0.0231
     16 C9         16.4514    9.4731    4.3660 C.ar        1 H52       0.0043
     17 C8         15.4959    8.4715    4.6437 C.ar        1 H52      -0.0481
     18 C7         15.0851    7.6027    3.6431 C.ar        1 H52      -0.0552
     19 C6         15.6447    7.7024    2.3683 C.ar        1 H52      -0.0302
     20 C1         16.7600   10.3680    5.4094 C.ar        1 H52       0.0104
     21 N2         17.6095   11.3890    5.1941 N.ar        1 H52      -0.3085
     22 C3         18.2201   11.5663    4.0077 C.ar        1 H52       0.0074
     23 H1         14.9168    9.4271   -0.5555 H           1 H52       0.0564
     24 H2         14.5562   11.8387   -0.0523 H           1 H52       0.0250
     25 H3         16.2873   12.1560   -0.2869 H           1 H52       0.0250
     26 H4         15.7325   11.1246    1.0462 H           1 H52       0.0250
     27 H5         15.8366   11.3188   -2.7772 H           1 H52       0.0832
     28 H6         14.1916   10.9259   -2.3381 H           1 H52       0.0832
     29 H7         15.1679    9.8174   -4.2853 H           1 H52       0.2014
     30 H8         14.3007    8.9320   -3.2032 H           1 H52       0.2014
     31 H9         16.1858    7.8246   -4.2526 H           1 H52       0.0814
     32 H10        15.9749    7.6643   -2.5233 H           1 H52       0.0814
     33 H11        18.0156    9.4036   -3.9894 H           1 H52       0.0333
     34 H12        18.3285    7.9668   -3.0323 H           1 H52       0.0333
     35 H13        18.9795    9.5610   -1.4860 H           1 H52       0.0480
     36 H14        17.9658   10.7957   -2.1412 H           1 H52       0.0480
     37 H15        19.2570   12.0184    1.7325 H           1 H52       0.0421
     38 H16        18.0478   11.1402    0.8373 H           1 H52       0.0421
     39 H17        19.5002   10.3077    1.4719 H           1 H52       0.0421
     40 H18        15.0731    8.3865    5.5723 H           1 H52       0.0643
     41 H19        14.3720    6.8960    3.8338 H           1 H52       0.0642
     42 H20        15.2923    7.0491    1.6708 H           1 H52       0.0657
     43 H21        16.3257   10.2876    6.3348 H           1 H52       0.0786
     44 H22        18.8579   12.3627    3.9371 H           1 H52       0.0687
@<TRIPOS>BOND
     1     1     2   2
     2     2     3   2
     3     2     4  am
     4     2    12   1
     5     4     5   1
     6     4    11   1
     7     5     6   1
     8     5     7   1
     9     7     8   1
    10     8     9   1
    11     9    10   1
    12    10    11   1
    13    12    13  ar
    14    12    19  ar
    15    13    14  ar
    16    13    16  ar
    17    14    15   1
    18    14    22  ar
    19    16    17  ar
    20    16    20  ar
    21    17    18  ar
    22    18    19  ar
    23    20    21  ar
    24    21    22  ar
    25     5    23   1
    26     6    24   1
    27     6    25   1
    28     6    26   1
    29     7    27   1
    30     7    28   1
    31     8    29   1
    32     8    30   1
    33     9    31   1
    34     9    32   1
    35    10    33   1
    36    10    34   1
    37    11    35   1
    38    11    36   1
    39    15    37   1
    40    15    38   1
    41    15    39   1
    42    17    40   1
    43    18    41   1
    44    19    42   1
    45    20    43   1
    46    22    44   1
@<TRIPOS>SUBSTRUCTURE
     1  H52      5

