@<TRIPOS>MOLECULE
1q8u_ligand_054
    44    46
SMALL
GAST_HUCK
****
This file was generated by PARSER (from files_GN.cpp)

@<TRIPOS>ATOM
      1 O1         11.4111    8.2011    4.0445 O.2         1 H52      -0.1497
      2 S5         10.9398    9.6702    4.4485 S.o2        1 H52       0.0732
      3 O2         12.0256    9.9708    5.5731 O.2         1 H52      -0.1497
      4 N21         9.4627    9.7475    5.2955 N.am        1 H52      -0.2257
      5 C22         9.0414    8.5870    6.0655 C.3         1 H52       0.0778
      6 C2M         9.3588    8.7388    7.5789 C.3         1 H52      -0.0402
      7 C23         7.5599    8.1992    5.8099 C.3         1 H52      -0.0136
      8 N24         6.5809    9.2948    5.9692 N.4         1 H52       0.2284
      9 C25         6.4623   10.2314    4.8312 C.3         1 H52      -0.0321
     10 C26         7.5705   11.3136    4.7333 C.3         1 H52       0.0045
     11 C27         8.8771   11.0542    5.5194 C.3         1 H52       0.0350
     12 C5         11.2251   10.7641    3.0961 C.ar        1 H52       0.1228
     13 C10        11.0151   10.4467    1.7113 C.ar        1 H52       0.0294
     14 C4         10.1571    9.4169    1.1914 C.ar        1 H52      -0.0110
     15 CM          9.0708    8.7417    1.9601 C.3         1 H52      -0.0231
     16 C9         11.7096   11.2557    0.7516 C.ar        1 H52       0.0043
     17 C8         12.4199   12.4110    1.1332 C.ar        1 H52      -0.0481
     18 C7         12.4735   12.7860    2.4773 C.ar        1 H52      -0.0552
     19 C6         11.9068   11.9557    3.4449 C.ar        1 H52      -0.0302
     20 C1         11.6826   10.9102   -0.6149 C.ar        1 H52       0.0104
     21 N2         10.9220    9.8860   -1.0438 N.ar        1 H52      -0.3085
     22 C3         10.1741    9.1458   -0.2001 C.ar        1 H52       0.0074
     23 H1          9.6092    7.7037    5.7485 H           1 H52       0.0564
     24 H2          9.2198    7.7873    8.1005 H           1 H52       0.0250
     25 H3          8.7056    9.4771    8.0480 H           1 H52       0.0250
     26 H4         10.3968    9.0567    7.7155 H           1 H52       0.0250
     27 H5          7.2770    7.4105    6.5134 H           1 H52       0.0832
     28 H6          7.4741    7.7648    4.8109 H           1 H52       0.0832
     29 H7          6.8001    9.8254    6.8132 H           1 H52       0.2014
     30 H8          5.6713    8.8563    6.1035 H           1 H52       0.2014
     31 H9          5.5003   10.7275    4.9325 H           1 H52       0.0814
     32 H10         6.4142    9.6659    3.8973 H           1 H52       0.0814
     33 H11         7.1606   12.2597    5.0911 H           1 H52       0.0333
     34 H12         7.8277   11.4705    3.6823 H           1 H52       0.0333
     35 H13         9.5776   11.8565    5.2641 H           1 H52       0.0480
     36 H14         8.6668   11.2053    6.5769 H           1 H52       0.0480
     37 H15         8.2850    8.3295    1.3023 H           1 H52       0.0421
     38 H16         8.5844    9.4739    2.6158 H           1 H52       0.0421
     39 H17         9.4614    7.9061    2.5626 H           1 H52       0.0421
     40 H18        12.8825   13.0012    0.4368 H           1 H52       0.0643
     41 H19        12.9762   13.6320    2.7516 H           1 H52       0.0642
     42 H20        12.0363   12.2159    4.4202 H           1 H52       0.0657
     43 H21        12.2220   11.4397   -1.3021 H           1 H52       0.0786
     44 H22         9.5794    8.4260   -0.6070 H           1 H52       0.0687
@<TRIPOS>BOND
     1     1     2   2
     2     2     3   2
     3     2     4  am
     4     2    12   1
     5     4     5   1
     6     4    11   1
     7     5     6   1
     8     5     7   1
     9     7     8   1
    10     8     9   1
    11     9    10   1
    12    10    11   1
    13    12    13  ar
    14    12    19  ar
    15    13    14  ar
    16    13    16  ar
    17    14    15   1
    18    14    22  ar
    19    16    17  ar
    20    16    20  ar
    21    17    18  ar
    22    18    19  ar
    23    20    21  ar
    24    21    22  ar
    25     5    23   1
    26     6    24   1
    27     6    25   1
    28     6    26   1
    29     7    27   1
    30     7    28   1
    31     8    29   1
    32     8    30   1
    33     9    31   1
    34     9    32   1
    35    10    33   1
    36    10    34   1
    37    11    35   1
    38    11    36   1
    39    15    37   1
    40    15    38   1
    41    15    39   1
    42    17    40   1
    43    18    41   1
    44    19    42   1
    45    20    43   1
    46    22    44   1
@<TRIPOS>SUBSTRUCTURE
     1  H52      5

