@<TRIPOS>MOLECULE
1q8u_ligand_084
    44    46
SMALL
GAST_HUCK
****
This file was generated by PARSER (from files_GN.cpp)

@<TRIPOS>ATOM
      1 O1          7.3627    8.0449    1.9839 O.2         1 H52      -0.1497
      2 S5          7.6157    9.3103    2.9202 S.o2        1 H52       0.0732
      3 O2          7.9594    8.5243    4.2620 O.2         1 H52      -0.1497
      4 N21         6.1810   10.1665    3.2339 N.am        1 H52      -0.2257
      5 C22         5.3592    9.8879    4.4102 C.3         1 H52       0.0778
      6 C2M         5.8523   10.7225    5.6241 C.3         1 H52      -0.0402
      7 C23         3.8218   10.0908    4.2106 C.3         1 H52      -0.0136
      8 N24         3.1946    9.3647    3.0819 N.4         1 H52       0.2284
      9 C25         3.8981    9.2705    1.7828 C.3         1 H52      -0.0321
     10 C26         4.6281   10.5506    1.2895 C.3         1 H52       0.0045
     11 C27         5.7368   11.1111    2.2329 C.3         1 H52       0.0350
     12 C5          9.0531   10.3165    2.7355 C.ar        1 H52       0.1228
     13 C10        10.0447   10.3240    1.6875 C.ar        1 H52       0.0294
     14 C4          9.9346    9.7315    0.3790 C.ar        1 H52      -0.0110
     15 CM          8.6951    9.2257   -0.2649 C.3         1 H52      -0.0231
     16 C9         11.2825   11.0057    1.9708 C.ar        1 H52       0.0043
     17 C8         11.4738   11.7386    3.1617 C.ar        1 H52      -0.0481
     18 C7         10.4425   11.8296    4.0953 C.ar        1 H52      -0.0552
     19 C6          9.2532   11.1327    3.8800 C.ar        1 H52      -0.0302
     20 C1         12.3519   10.9774    1.0515 C.ar        1 H52       0.0104
     21 N2         12.2218   10.3283   -0.1209 N.ar        1 H52      -0.3085
     22 C3         11.0737    9.7124   -0.4661 C.ar        1 H52       0.0074
     23 H1          5.4786    8.8345    4.6712 H           1 H52       0.0564
     24 H2          5.1776   10.6047    6.4740 H           1 H52       0.0250
     25 H3          5.9031   11.7815    5.3664 H           1 H52       0.0250
     26 H4          6.8407   10.3901    5.9411 H           1 H52       0.0250
     27 H5          3.5967   11.1508    4.0992 H           1 H52       0.0832
     28 H6          3.3111    9.7610    5.1164 H           1 H52       0.0832
     29 H7          2.2831    9.7956    2.9082 H           1 H52       0.2014
     30 H8          3.0222    8.4070    3.3978 H           1 H52       0.2014
     31 H9          3.1536    8.9814    1.0367 H           1 H52       0.0814
     32 H10         4.6121    8.4482    1.8444 H           1 H52       0.0814
     33 H11         3.8812   11.3257    1.1039 H           1 H52       0.0333
     34 H12         5.0798   10.3060    0.3244 H           1 H52       0.0333
     35 H13         6.5656   11.4700    1.6154 H           1 H52       0.0480
     36 H14         5.3569   11.9986    2.7399 H           1 H52       0.0480
     37 H15         8.6828    9.4511   -1.3387 H           1 H52       0.0421
     38 H16         7.8100    9.7062    0.1444 H           1 H52       0.0421
     39 H17         8.6380    8.1404   -0.1396 H           1 H52       0.0421
     40 H18        12.3569   12.2289    3.3558 H           1 H52       0.0643
     41 H19        10.5617   12.3850    4.9462 H           1 H52       0.0642
     42 H20         8.5491   11.1981    4.6177 H           1 H52       0.0657
     43 H21        13.2379   11.4502    1.2441 H           1 H52       0.0786
     44 H22        11.0393    9.2728   -1.3890 H           1 H52       0.0687
@<TRIPOS>BOND
     1     1     2   2
     2     2     3   2
     3     2     4  am
     4     2    12   1
     5     4     5   1
     6     4    11   1
     7     5     6   1
     8     5     7   1
     9     7     8   1
    10     8     9   1
    11     9    10   1
    12    10    11   1
    13    12    13  ar
    14    12    19  ar
    15    13    14  ar
    16    13    16  ar
    17    14    15   1
    18    14    22  ar
    19    16    17  ar
    20    16    20  ar
    21    17    18  ar
    22    18    19  ar
    23    20    21  ar
    24    21    22  ar
    25     5    23   1
    26     6    24   1
    27     6    25   1
    28     6    26   1
    29     7    27   1
    30     7    28   1
    31     8    29   1
    32     8    30   1
    33     9    31   1
    34     9    32   1
    35    10    33   1
    36    10    34   1
    37    11    35   1
    38    11    36   1
    39    15    37   1
    40    15    38   1
    41    15    39   1
    42    17    40   1
    43    18    41   1
    44    19    42   1
    45    20    43   1
    46    22    44   1
@<TRIPOS>SUBSTRUCTURE
     1  H52      5

