@<TRIPOS>MOLECULE
1q8u_ligand_000
    44    46
SMALL
GAST_HUCK
****
This file was generated by PARSER (from files_GN.cpp)

@<TRIPOS>ATOM
      1 O1         15.9844   11.5888    0.1030 O.2         1 H52      -0.1497
      2 S5         15.2295   12.0519   -1.2233 S.o2        1 H52       0.0732
      3 O2         16.2218   13.2217   -1.6531 O.2         1 H52      -0.1497
      4 N21        13.7704   12.8240   -0.8119 N.am        1 H52      -0.2257
      5 C22        13.7218   14.2762   -0.6192 C.3         1 H52       0.0778
      6 C2M        13.5880   15.0147   -1.9794 C.3         1 H52      -0.0402
      7 C23        12.6214   14.7589    0.3698 C.3         1 H52      -0.0136
      8 N24        12.7732   14.2498    1.7487 N.4         1 H52       0.2284
      9 C25        13.1262   12.8254    1.9689 C.3         1 H52      -0.0321
     10 C26        12.4246   11.7890    1.0533 C.3         1 H52       0.0045
     11 C27        12.6595   11.9616   -0.4771 C.3         1 H52       0.0350
     12 C5         15.1921   11.0985   -2.7139 C.ar        1 H52       0.1228
     13 C10        15.7897    9.8143   -2.9659 C.ar        1 H52       0.0294
     14 C4         16.2038    8.8562   -1.9761 C.ar        1 H52      -0.0110
     15 CM         15.7620    8.8031   -0.5518 C.3         1 H52      -0.0231
     16 C9         15.9850    9.4547   -4.3427 C.ar        1 H52       0.0043
     17 C8         15.4727   10.2283   -5.3981 C.ar        1 H52      -0.0481
     18 C7         14.7587   11.3933   -5.1241 C.ar        1 H52      -0.0552
     19 C6         14.6398   11.8325   -3.8000 C.ar        1 H52      -0.0302
     20 C1         16.7145    8.2976   -4.6679 C.ar        1 H52       0.0104
     21 N2         17.2044    7.4961   -3.6990 N.ar        1 H52      -0.3085
     22 C3         16.9758    7.7466   -2.3934 C.ar        1 H52       0.0074
     23 H1         14.6698   14.5906   -0.1702 H           1 H52       0.0564
     24 H2         13.5957   16.0934   -1.8262 H           1 H52       0.0250
     25 H3         12.6563   14.7316   -2.4695 H           1 H52       0.0250
     26 H4         14.4156   14.7741   -2.6420 H           1 H52       0.0250
     27 H5         11.6289   14.4975    0.0018 H           1 H52       0.0832
     28 H6         12.6473   15.8431    0.4359 H           1 H52       0.0832
     29 H7         11.8974   14.4329    2.2475 H           1 H52       0.2014
     30 H8         13.5044   14.8214    2.1865 H           1 H52       0.2014
     31 H9         12.8940   12.5907    3.0129 H           1 H52       0.0814
     32 H10        14.2078   12.7177    1.8546 H           1 H52       0.0814
     33 H11        11.3500   11.8234    1.2563 H           1 H52       0.0333
     34 H12        12.7748   10.7954    1.3556 H           1 H52       0.0333
     35 H13        12.7706   10.9670   -0.9247 H           1 H52       0.0480
     36 H14        11.7594   12.3720   -0.9293 H           1 H52       0.0480
     37 H15        15.6280    7.7522   -0.2215 H           1 H52       0.0421
     38 H16        14.7845    9.2855   -0.4113 H           1 H52       0.0421
     39 H17        16.5196    9.2761    0.0990 H           1 H52       0.0421
     40 H18        15.5966    9.9430   -6.3656 H           1 H52       0.0643
     41 H19        14.3688   11.9439   -5.8861 H           1 H52       0.0642
     42 H20        14.1681   12.7297   -3.6497 H           1 H52       0.0657
     43 H21        16.8926    8.0310   -5.6402 H           1 H52       0.0786
     44 H22        17.3351    7.0724   -1.7170 H           1 H52       0.0687
@<TRIPOS>BOND
     1     1     2   2
     2     2     3   2
     3     2     4  am
     4     2    12   1
     5     4     5   1
     6     4    11   1
     7     5     6   1
     8     5     7   1
     9     7     8   1
    10     8     9   1
    11     9    10   1
    12    10    11   1
    13    12    13  ar
    14    12    19  ar
    15    13    14  ar
    16    13    16  ar
    17    14    15   1
    18    14    22  ar
    19    16    17  ar
    20    16    20  ar
    21    17    18  ar
    22    18    19  ar
    23    20    21  ar
    24    21    22  ar
    25     5    23   1
    26     6    24   1
    27     6    25   1
    28     6    26   1
    29     7    27   1
    30     7    28   1
    31     8    29   1
    32     8    30   1
    33     9    31   1
    34     9    32   1
    35    10    33   1
    36    10    34   1
    37    11    35   1
    38    11    36   1
    39    15    37   1
    40    15    38   1
    41    15    39   1
    42    17    40   1
    43    18    41   1
    44    19    42   1
    45    20    43   1
    46    22    44   1
@<TRIPOS>SUBSTRUCTURE
     1  H52      5

