@<TRIPOS>MOLECULE
1q8u_ligand_008
    44    46
SMALL
GAST_HUCK
****
This file was generated by PARSER (from files_GN.cpp)

@<TRIPOS>ATOM
      1 O1          9.0946   10.5135    1.6400 O.2         1 H52      -0.1497
      2 S5          9.2782   10.1660    3.1796 S.o2        1 H52       0.0732
      3 O2          9.9402   11.5531    3.5927 O.2         1 H52      -0.1497
      4 N21        10.5976    9.1015    3.3591 N.am        1 H52      -0.2257
      5 C22        11.9176    9.4699    2.8469 C.3         1 H52       0.0778
      6 C2M        12.7947   10.0632    3.9852 C.3         1 H52      -0.0402
      7 C23        12.7119    8.3119    2.1473 C.3         1 H52      -0.0136
      8 N24        12.0317    7.5478    1.0738 N.4         1 H52       0.2284
      9 C25        10.5876    7.2483    1.2011 C.3         1 H52      -0.0321
     10 C26        10.1476    6.7460    2.6031 C.3         1 H52       0.0045
     11 C27        10.3293    7.7496    3.7850 C.3         1 H52       0.0350
     12 C5          7.9509   10.1009    4.3564 C.ar        1 H52       0.1228
     13 C10         6.5305    9.8772    4.1734 C.ar        1 H52       0.0294
     14 C4          5.8526    9.4726    2.9682 C.ar        1 H52      -0.0110
     15 CM          6.5090    9.2123    1.6732 C.3         1 H52      -0.0231
     16 C9          5.6857   10.0627    5.3289 C.ar        1 H52       0.0043
     17 C8          6.2168   10.3903    6.5928 C.ar        1 H52      -0.0481
     18 C7          7.5948   10.4953    6.7655 C.ar        1 H52      -0.0552
     19 C6          8.4427   10.3419    5.6665 C.ar        1 H52      -0.0302
     20 C1          4.2855    9.9090    5.2462 C.ar        1 H52       0.0104
     21 N2          3.7098    9.5429    4.0877 N.ar        1 H52      -0.3085
     22 C3          4.4415    9.3228    2.9764 C.ar        1 H52       0.0074
     23 H1         11.8068   10.2516    2.0884 H           1 H52       0.0564
     24 H2         13.7655   10.3712    3.5937 H           1 H52       0.0250
     25 H3         12.9566    9.3227    4.7693 H           1 H52       0.0250
     26 H4         12.3245   10.9383    4.4305 H           1 H52       0.0250
     27 H5         13.0310    7.5873    2.9015 H           1 H52       0.0832
     28 H6         13.6233    8.7246    1.7049 H           1 H52       0.0832
     29 H7         12.5130    6.6484    1.0163 H           1 H52       0.2014
     30 H8         12.1901    8.0239    0.1803 H           1 H52       0.2014
     31 H9         10.3531    6.4750    0.4661 H           1 H52       0.0814
     32 H10        10.0132    8.1339    0.9273 H           1 H52       0.0814
     33 H11        10.7034    5.8350    2.8254 H           1 H52       0.0333
     34 H12         9.0947    6.4698    2.5429 H           1 H52       0.0333
     35 H13         9.4433    7.7066    4.4263 H           1 H52       0.0480
     36 H14        11.1571    7.4148    4.4202 H           1 H52       0.0480
     37 H15         5.8574    8.7462    0.9340 H           1 H52       0.0421
     38 H16         7.3567    8.5457    1.8128 H           1 H52       0.0421
     39 H17         6.8062   10.1739    1.2694 H           1 H52       0.0421
     40 H18         5.6124   10.5273    7.4092 H           1 H52       0.0643
     41 H19         7.9837   10.6981    7.6880 H           1 H52       0.0642
     42 H20         9.4473   10.4543    5.8496 H           1 H52       0.0657
     43 H21         3.6788   10.0541    6.0566 H           1 H52       0.0786
     44 H22         3.9324    9.0463    2.1363 H           1 H52       0.0687
@<TRIPOS>BOND
     1     1     2   2
     2     2     3   2
     3     2     4  am
     4     2    12   1
     5     4     5   1
     6     4    11   1
     7     5     6   1
     8     5     7   1
     9     7     8   1
    10     8     9   1
    11     9    10   1
    12    10    11   1
    13    12    13  ar
    14    12    19  ar
    15    13    14  ar
    16    13    16  ar
    17    14    15   1
    18    14    22  ar
    19    16    17  ar
    20    16    20  ar
    21    17    18  ar
    22    18    19  ar
    23    20    21  ar
    24    21    22  ar
    25     5    23   1
    26     6    24   1
    27     6    25   1
    28     6    26   1
    29     7    27   1
    30     7    28   1
    31     8    29   1
    32     8    30   1
    33     9    31   1
    34     9    32   1
    35    10    33   1
    36    10    34   1
    37    11    35   1
    38    11    36   1
    39    15    37   1
    40    15    38   1
    41    15    39   1
    42    17    40   1
    43    18    41   1
    44    19    42   1
    45    20    43   1
    46    22    44   1
@<TRIPOS>SUBSTRUCTURE
     1  H52      5

