@<TRIPOS>MOLECULE
1q8u_ligand_074
    44    46
SMALL
GAST_HUCK
****
This file was generated by PARSER (from files_GN.cpp)

@<TRIPOS>ATOM
      1 O1         18.7096    9.0210   -0.0662 O.2         1 H52      -0.1497
      2 S5         17.5871    9.8492   -0.8441 S.o2        1 H52       0.0732
      3 O2         17.8585   11.2595   -0.1648 O.2         1 H52      -0.1497
      4 N21        16.1231    9.1687   -0.2970 N.am        1 H52      -0.2257
      5 C22        16.0175    7.7383   -0.0460 C.3         1 H52       0.0778
      6 C2M        16.5463    6.8549   -1.2083 C.3         1 H52      -0.0402
      7 C23        16.6177    7.2765    1.3224 C.3         1 H52      -0.0136
      8 N24        16.5596    8.2330    2.4532 N.4         1 H52       0.2284
      9 C25        15.2911    8.9605    2.6577 C.3         1 H52      -0.0321
     10 C26        15.2552   10.2533    1.8075 C.3         1 H52       0.0045
     11 C27        15.1160   10.0385    0.2804 C.3         1 H52       0.0350
     12 C5         18.0598   10.0145   -2.5342 C.ar        1 H52       0.1228
     13 C10        17.1914   10.0354   -3.6838 C.ar        1 H52       0.0294
     14 C4         15.7810   10.3187   -3.6791 C.ar        1 H52      -0.0110
     15 CM         15.0739   11.1147   -2.6565 C.3         1 H52      -0.0231
     16 C9         17.7810    9.7865   -4.9672 C.ar        1 H52       0.0043
     17 C8         19.1801    9.7358   -5.1310 C.ar        1 H52      -0.0481
     18 C7         20.0187    9.8777   -4.0226 C.ar        1 H52      -0.0552
     19 C6         19.4594    9.9990   -2.7445 C.ar        1 H52      -0.0302
     20 C1         16.9665    9.6088   -6.1083 C.ar        1 H52       0.0104
     21 N2         15.6251    9.7072   -6.0059 N.ar        1 H52      -0.3085
     22 C3         15.0244   10.0426   -4.8442 C.ar        1 H52       0.0074
     23 H1         14.9450    7.4914   -0.0005 H           1 H52       0.0564
     24 H2         16.3022    5.8078   -1.0208 H           1 H52       0.0250
     25 H3         17.6297    6.9440   -1.2990 H           1 H52       0.0250
     26 H4         16.0856    7.1573   -2.1502 H           1 H52       0.0250
     27 H5         17.6684    7.0122    1.1977 H           1 H52       0.0832
     28 H6         16.0986    6.3691    1.6434 H           1 H52       0.0832
     29 H7         17.3164    8.9176    2.3448 H           1 H52       0.2014
     30 H8         16.7547    7.6990    3.3084 H           1 H52       0.2014
     31 H9         15.2417    9.2443    3.7107 H           1 H52       0.0814
     32 H10        14.4317    8.3220    2.4419 H           1 H52       0.0814
     33 H11        16.1691   10.8280    2.0006 H           1 H52       0.0333
     34 H12        14.4107   10.8552    2.1459 H           1 H52       0.0333
     35 H13        14.1193    9.6369    0.0720 H           1 H52       0.0480
     36 H14        15.1384   11.0278   -0.1754 H           1 H52       0.0480
     37 H15        14.5537   11.9491   -3.1298 H           1 H52       0.0421
     38 H16        15.7600   11.5766   -1.9520 H           1 H52       0.0421
     39 H17        14.3431   10.4964   -2.1435 H           1 H52       0.0421
     40 H18        19.6073    9.6148   -6.0534 H           1 H52       0.0643
     41 H19        21.0360    9.8527   -4.1377 H           1 H52       0.0642
     42 H20        20.1120   10.0545   -1.9598 H           1 H52       0.0657
     43 H21        17.3667    9.4074   -7.0256 H           1 H52       0.0786
     44 H22        14.0080   10.1866   -4.8626 H           1 H52       0.0687
@<TRIPOS>BOND
     1     1     2   2
     2     2     3   2
     3     2     4  am
     4     2    12   1
     5     4     5   1
     6     4    11   1
     7     5     6   1
     8     5     7   1
     9     7     8   1
    10     8     9   1
    11     9    10   1
    12    10    11   1
    13    12    13  ar
    14    12    19  ar
    15    13    14  ar
    16    13    16  ar
    17    14    15   1
    18    14    22  ar
    19    16    17  ar
    20    16    20  ar
    21    17    18  ar
    22    18    19  ar
    23    20    21  ar
    24    21    22  ar
    25     5    23   1
    26     6    24   1
    27     6    25   1
    28     6    26   1
    29     7    27   1
    30     7    28   1
    31     8    29   1
    32     8    30   1
    33     9    31   1
    34     9    32   1
    35    10    33   1
    36    10    34   1
    37    11    35   1
    38    11    36   1
    39    15    37   1
    40    15    38   1
    41    15    39   1
    42    17    40   1
    43    18    41   1
    44    19    42   1
    45    20    43   1
    46    22    44   1
@<TRIPOS>SUBSTRUCTURE
     1  H52      5

