@<TRIPOS>MOLECULE
1q8u_ligand_002
    44    46
SMALL
GAST_HUCK
****
This file was generated by PARSER (from files_GN.cpp)

@<TRIPOS>ATOM
      1 O1         18.1271   10.9049    0.4929 O.2         1 H52      -0.1497
      2 S5         17.5827    9.4908    0.0214 S.o2        1 H52       0.0732
      3 O2         18.9167    8.6177    0.0163 O.2         1 H52      -0.1497
      4 N21        17.1580    9.8138   -1.5998 N.am        1 H52      -0.2257
      5 C22        15.9987   10.6608   -1.8421 C.3         1 H52       0.0778
      6 C2M        16.3456   12.1694   -1.6675 C.3         1 H52      -0.0402
      7 C23        15.2924   10.4251   -3.2150 C.3         1 H52      -0.0136
      8 N24        15.0953    8.9903   -3.5189 N.4         1 H52       0.2284
      9 C25        16.2146    8.2885   -4.1934 C.3         1 H52      -0.0321
     10 C26        17.4952    8.0969   -3.3389 C.3         1 H52       0.0045
     11 C27        18.0221    9.3980   -2.6826 C.3         1 H52       0.0350
     12 C5         16.5310    8.4041    0.9425 C.ar        1 H52       0.1228
     13 C10        16.5321    8.1438    2.3655 C.ar        1 H52       0.0294
     14 C4         17.0633    8.9916    3.4009 C.ar        1 H52      -0.0110
     15 CM         17.4853   10.4000    3.2321 C.3         1 H52      -0.0231
     16 C9         15.9314    6.9127    2.8073 C.ar        1 H52       0.0043
     17 C8         15.2656    6.0464    1.9164 C.ar        1 H52      -0.0481
     18 C7         15.1794    6.3714    0.5636 C.ar        1 H52      -0.0552
     19 C6         15.8095    7.5234    0.0919 C.ar        1 H52      -0.0302
     20 C1         15.9919    6.5224    4.1622 C.ar        1 H52       0.0104
     21 N2         16.5801    7.3197    5.0715 N.ar        1 H52      -0.3085
     22 C3         17.1011    8.5141    4.7359 C.ar        1 H52       0.0074
     23 H1         15.2407   10.4175   -1.0882 H           1 H52       0.0564
     24 H2         15.5680   12.8070   -2.0956 H           1 H52       0.0250
     25 H3         17.2968   12.4057   -2.1510 H           1 H52       0.0250
     26 H4         16.4205   12.4203   -0.6088 H           1 H52       0.0250
     27 H5         15.8362   10.9168   -4.0258 H           1 H52       0.0832
     28 H6         14.3012   10.8829   -3.1736 H           1 H52       0.0832
     29 H7         14.2700    8.9034   -4.1160 H           1 H52       0.2014
     30 H8         14.8536    8.5097   -2.6532 H           1 H52       0.2014
     31 H9         16.4689    8.8199   -5.1172 H           1 H52       0.0814
     32 H10        15.8463    7.3008   -4.4823 H           1 H52       0.0814
     33 H11        18.2775    7.7003   -3.9904 H           1 H52       0.0333
     34 H12        17.3128    7.3439   -2.5677 H           1 H52       0.0333
     35 H13        19.0473    9.2266   -2.3451 H           1 H52       0.0480
     36 H14        18.0957   10.1843   -3.4395 H           1 H52       0.0480
     37 H15        17.5369   10.9552    4.1725 H           1 H52       0.0421
     38 H16        16.7621   10.9232    2.6072 H           1 H52       0.0421
     39 H17        18.4814   10.4217    2.7970 H           1 H52       0.0421
     40 H18        14.8294    5.1776    2.2395 H           1 H52       0.0643
     41 H19        14.6978    5.7437   -0.0873 H           1 H52       0.0642
     42 H20        15.7691    7.6794   -0.9132 H           1 H52       0.0657
     43 H21        15.5939    5.6371    4.4848 H           1 H52       0.0786
     44 H22        17.5011    9.0758    5.4917 H           1 H52       0.0687
@<TRIPOS>BOND
     1     1     2   2
     2     2     3   2
     3     2     4  am
     4     2    12   1
     5     4     5   1
     6     4    11   1
     7     5     6   1
     8     5     7   1
     9     7     8   1
    10     8     9   1
    11     9    10   1
    12    10    11   1
    13    12    13  ar
    14    12    19  ar
    15    13    14  ar
    16    13    16  ar
    17    14    15   1
    18    14    22  ar
    19    16    17  ar
    20    16    20  ar
    21    17    18  ar
    22    18    19  ar
    23    20    21  ar
    24    21    22  ar
    25     5    23   1
    26     6    24   1
    27     6    25   1
    28     6    26   1
    29     7    27   1
    30     7    28   1
    31     8    29   1
    32     8    30   1
    33     9    31   1
    34     9    32   1
    35    10    33   1
    36    10    34   1
    37    11    35   1
    38    11    36   1
    39    15    37   1
    40    15    38   1
    41    15    39   1
    42    17    40   1
    43    18    41   1
    44    19    42   1
    45    20    43   1
    46    22    44   1
@<TRIPOS>SUBSTRUCTURE
     1  H52      5

