@<TRIPOS>MOLECULE
1q8u_ligand_023
    44    46
SMALL
GAST_HUCK
****
This file was generated by PARSER (from files_GN.cpp)

@<TRIPOS>ATOM
      1 O1         11.1724   10.9844    0.7587 O.2         1 H52      -0.1497
      2 S5         12.3372   10.0427    1.2981 S.o2        1 H52       0.0732
      3 O2         11.7947    8.6948    0.6544 O.2         1 H52      -0.1497
      4 N21        12.2711    9.7368    2.9711 N.am        1 H52      -0.2257
      5 C22        13.0711    8.6548    3.5245 C.3         1 H52       0.0778
      6 C2M        14.4640    9.1962    3.9437 C.3         1 H52      -0.0402
      7 C23        12.4230    7.8925    4.7265 C.3         1 H52      -0.0136
      8 N24        11.0569    7.3499    4.5411 N.4         1 H52       0.2284
      9 C25        10.0634    8.1053    3.7452 C.3         1 H52      -0.0321
     10 C26         9.9878    9.6370    3.9986 C.3         1 H52       0.0045
     11 C27        11.3075   10.4370    3.7843 C.3         1 H52       0.0350
     12 C5         13.9119   10.3831    0.5787 C.ar        1 H52       0.1228
     13 C10        14.4614   11.6647    0.2140 C.ar        1 H52       0.0294
     14 C4         13.9793   12.9550    0.6242 C.ar        1 H52      -0.0110
     15 CM         13.0288   13.2146    1.7399 C.3         1 H52      -0.0231
     16 C9         15.6212   11.6516   -0.6332 C.ar        1 H52       0.0043
     17 C8         16.2812   10.4553   -0.9737 C.ar        1 H52      -0.0481
     18 C7         15.8048    9.2334   -0.4946 C.ar        1 H52      -0.0552
     19 C6         14.6292    9.2004    0.2582 C.ar        1 H52      -0.0302
     20 C1         16.1493   12.8571   -1.1425 C.ar        1 H52       0.0104
     21 N2         15.5957   14.0360   -0.8090 N.ar        1 H52      -0.3085
     22 C3         14.5434   14.1113    0.0306 C.ar        1 H52       0.0074
     23 H1         13.2366    7.8939    2.7559 H           1 H52       0.0564
     24 H2         15.0998    8.3797    4.2981 H           1 H52       0.0250
     25 H3         14.3650    9.9339    4.7431 H           1 H52       0.0250
     26 H4         14.9686    9.6705    3.1008 H           1 H52       0.0250
     27 H5         12.3991    8.5401    5.6051 H           1 H52       0.0832
     28 H6         13.0586    7.0397    4.9884 H           1 H52       0.0832
     29 H7         10.6771    7.2302    5.4813 H           1 H52       0.2014
     30 H8         11.1416    6.4150    4.1292 H           1 H52       0.2014
     31 H9          9.0830    7.6711    3.9582 H           1 H52       0.0814
     32 H10        10.2621    7.9243    2.6868 H           1 H52       0.0814
     33 H11         9.6331    9.8027    5.0216 H           1 H52       0.0333
     34 H12         9.2270   10.0405    3.3272 H           1 H52       0.0333
     35 H13        11.0589   11.4152    3.3644 H           1 H52       0.0480
     36 H14        11.7604   10.6546    4.7569 H           1 H52       0.0480
     37 H15        13.1980   14.1967    2.1995 H           1 H52       0.0421
     38 H16        13.1698   12.4846    2.5350 H           1 H52       0.0421
     39 H17        12.0008   13.1918    1.3684 H           1 H52       0.0421
     40 H18        17.1257   10.4557   -1.5577 H           1 H52       0.0643
     41 H19        16.2942    8.3638   -0.7225 H           1 H52       0.0642
     42 H20        14.2941    8.2806    0.5430 H           1 H52       0.0657
     43 H21        16.9639   12.8618   -1.7693 H           1 H52       0.0786
     44 H22        14.1921   15.0440    0.2505 H           1 H52       0.0687
@<TRIPOS>BOND
     1     1     2   2
     2     2     3   2
     3     2     4  am
     4     2    12   1
     5     4     5   1
     6     4    11   1
     7     5     6   1
     8     5     7   1
     9     7     8   1
    10     8     9   1
    11     9    10   1
    12    10    11   1
    13    12    13  ar
    14    12    19  ar
    15    13    14  ar
    16    13    16  ar
    17    14    15   1
    18    14    22  ar
    19    16    17  ar
    20    16    20  ar
    21    17    18  ar
    22    18    19  ar
    23    20    21  ar
    24    21    22  ar
    25     5    23   1
    26     6    24   1
    27     6    25   1
    28     6    26   1
    29     7    27   1
    30     7    28   1
    31     8    29   1
    32     8    30   1
    33     9    31   1
    34     9    32   1
    35    10    33   1
    36    10    34   1
    37    11    35   1
    38    11    36   1
    39    15    37   1
    40    15    38   1
    41    15    39   1
    42    17    40   1
    43    18    41   1
    44    19    42   1
    45    20    43   1
    46    22    44   1
@<TRIPOS>SUBSTRUCTURE
     1  H52      5

