@<TRIPOS>MOLECULE
1q8u_ligand_057
    44    46
SMALL
GAST_HUCK
****
This file was generated by PARSER (from files_GN.cpp)

@<TRIPOS>ATOM
      1 O1         15.6520   10.0201   -1.1379 O.2         1 H52      -0.1497
      2 S5         15.7969   10.3374    0.4158 S.o2        1 H52       0.0732
      3 O2         16.9788   11.4042    0.4432 O.2         1 H52      -0.1497
      4 N21        16.3950    8.9597    1.2241 N.am        1 H52      -0.2257
      5 C22        16.2438    7.6554    0.6006 C.3         1 H52       0.0778
      6 C2M        17.5698    7.1900   -0.0487 C.3         1 H52      -0.0402
      7 C23        15.5557    6.5755    1.4902 C.3         1 H52      -0.0136
      8 N24        16.2678    6.1119    2.6983 N.4         1 H52       0.2284
      9 C25        16.5016    7.1161    3.7512 C.3         1 H52      -0.0321
     10 C26        17.6325    8.0900    3.3630 C.3         1 H52       0.0045
     11 C27        17.2096    9.2277    2.3954 C.3         1 H52       0.0350
     12 C5         14.3437   11.0377    1.1196 C.ar        1 H52       0.1228
     13 C10        13.8529   12.3788    0.9341 C.ar        1 H52       0.0294
     14 C4         14.1682   13.2760   -0.1476 C.ar        1 H52      -0.0110
     15 CM         14.8122   12.8937   -1.4348 C.3         1 H52      -0.0231
     16 C9         12.9300   12.8658    1.9245 C.ar        1 H52       0.0043
     17 C8         12.4201   12.0365    2.9423 C.ar        1 H52      -0.0481
     18 C7         12.8000   10.6965    3.0055 C.ar        1 H52      -0.0552
     19 C6         13.7556   10.2106    2.1103 C.ar        1 H52      -0.0302
     20 C1         12.4941   14.2030    1.8948 C.ar        1 H52       0.0104
     21 N2         12.8901   15.0264    0.9086 N.ar        1 H52      -0.3085
     22 C3         13.6930   14.6107   -0.0906 C.ar        1 H52       0.0074
     23 H1         15.5445    7.7445   -0.2382 H           1 H52       0.0564
     24 H2         17.3890    6.3537   -0.7269 H           1 H52       0.0250
     25 H3         18.2821    6.8743    0.7099 H           1 H52       0.0250
     26 H4         18.0121    8.0025   -0.6291 H           1 H52       0.0250
     27 H5         15.3830    5.6881    0.8770 H           1 H52       0.0832
     28 H6         14.5683    6.9337    1.7888 H           1 H52       0.0832
     29 H7         17.1701    5.7048    2.4405 H           1 H52       0.2014
     30 H8         15.7009    5.3669    3.1114 H           1 H52       0.2014
     31 H9         16.8132    6.5670    4.6447 H           1 H52       0.0814
     32 H10        15.5840    7.6546    3.9993 H           1 H52       0.0814
     33 H11        18.4638    7.5257    2.9383 H           1 H52       0.0333
     34 H12        18.0089    8.5549    4.2785 H           1 H52       0.0333
     35 H13        16.6814    9.9641    3.0108 H           1 H52       0.0480
     36 H14        18.1362    9.7011    2.0579 H           1 H52       0.0480
     37 H15        14.7214   13.6620   -2.2085 H           1 H52       0.0421
     38 H16        14.3230   12.0046   -1.8324 H           1 H52       0.0421
     39 H17        15.8769   12.7240   -1.3028 H           1 H52       0.0421
     40 H18        11.7514   12.3920    3.6320 H           1 H52       0.0643
     41 H19        12.4141   10.0878    3.7317 H           1 H52       0.0642
     42 H20        14.0454    9.2410    2.2348 H           1 H52       0.0657
     43 H21        11.8662   14.5696    2.6110 H           1 H52       0.0786
     44 H22        13.9168   15.2926   -0.8201 H           1 H52       0.0687
@<TRIPOS>BOND
     1     1     2   2
     2     2     3   2
     3     2     4  am
     4     2    12   1
     5     4     5   1
     6     4    11   1
     7     5     6   1
     8     5     7   1
     9     7     8   1
    10     8     9   1
    11     9    10   1
    12    10    11   1
    13    12    13  ar
    14    12    19  ar
    15    13    14  ar
    16    13    16  ar
    17    14    15   1
    18    14    22  ar
    19    16    17  ar
    20    16    20  ar
    21    17    18  ar
    22    18    19  ar
    23    20    21  ar
    24    21    22  ar
    25     5    23   1
    26     6    24   1
    27     6    25   1
    28     6    26   1
    29     7    27   1
    30     7    28   1
    31     8    29   1
    32     8    30   1
    33     9    31   1
    34     9    32   1
    35    10    33   1
    36    10    34   1
    37    11    35   1
    38    11    36   1
    39    15    37   1
    40    15    38   1
    41    15    39   1
    42    17    40   1
    43    18    41   1
    44    19    42   1
    45    20    43   1
    46    22    44   1
@<TRIPOS>SUBSTRUCTURE
     1  H52      5

