@<TRIPOS>MOLECULE
1q8u_ligand_012
    44    46
SMALL
GAST_HUCK
****
This file was generated by PARSER (from files_GN.cpp)

@<TRIPOS>ATOM
      1 O1         15.9693   13.5263   -1.5179 O.2         1 H52      -0.1497
      2 S5         14.9339   12.3640   -1.8953 S.o2        1 H52       0.0732
      3 O2         14.2164   13.0936   -3.1215 O.2         1 H52      -0.1497
      4 N21        13.7580   12.3505   -0.6533 N.am        1 H52      -0.2257
      5 C22        13.6613   13.4552    0.3014 C.3         1 H52       0.0778
      6 C2M        13.1203   14.7172   -0.4219 C.3         1 H52      -0.0402
      7 C23        12.8371   13.1997    1.6083 C.3         1 H52      -0.0136
      8 N24        13.2262   11.9355    2.2843 N.4         1 H52       0.2284
      9 C25        12.5668   10.6925    1.8159 C.3         1 H52      -0.0321
     10 C26        13.0192   10.2266    0.4133 C.3         1 H52       0.0045
     11 C27        12.7845   11.2857   -0.6880 C.3         1 H52       0.0350
     12 C5         15.9464   10.8905   -1.8155 C.ar        1 H52       0.1228
     13 C10        16.0316    9.7208   -2.6766 C.ar        1 H52       0.0294
     14 C4         15.5218    9.5368   -4.0128 C.ar        1 H52      -0.0110
     15 CM         14.9607   10.5489   -4.9377 C.3         1 H52      -0.0231
     16 C9         16.6807    8.5635   -2.1171 C.ar        1 H52       0.0043
     17 C8         17.3162    8.5940   -0.8605 C.ar        1 H52      -0.0481
     18 C7         17.3675    9.7706   -0.1340 C.ar        1 H52      -0.0552
     19 C6         16.6443   10.8712   -0.5692 C.ar        1 H52      -0.0302
     20 C1         16.6940    7.3189   -2.7823 C.ar        1 H52       0.0104
     21 N2         16.1162    7.2107   -3.9934 N.ar        1 H52      -0.3085
     22 C3         15.5690    8.2643   -4.6144 C.ar        1 H52       0.0074
     23 H1         14.6666   13.6850    0.6611 H           1 H52       0.0564
     24 H2         12.9590   15.5388    0.2727 H           1 H52       0.0250
     25 H3         12.1775   14.4939   -0.9198 H           1 H52       0.0250
     26 H4         13.8295   15.0576   -1.1705 H           1 H52       0.0250
     27 H5         11.7537   13.2126    1.4216 H           1 H52       0.0832
     28 H6         13.0368   14.0062    2.3268 H           1 H52       0.0832
     29 H7         13.0138   12.0342    3.2854 H           1 H52       0.2014
     30 H8         14.2433   11.8201    2.1940 H           1 H52       0.2014
     31 H9         11.4802   10.8221    1.8283 H           1 H52       0.0814
     32 H10        12.8084    9.9074    2.5427 H           1 H52       0.0814
     33 H11        12.4557    9.3260    0.1724 H           1 H52       0.0333
     34 H12        14.0771    9.9456    0.4576 H           1 H52       0.0333
     35 H13        12.8166   10.7595   -1.6369 H           1 H52       0.0480
     36 H14        11.7749   11.6884   -0.6015 H           1 H52       0.0480
     37 H15        13.9148   10.2891   -5.1706 H           1 H52       0.0421
     38 H16        15.5382   10.5903   -5.8846 H           1 H52       0.0421
     39 H17        15.0221   11.5447   -4.5385 H           1 H52       0.0421
     40 H18        17.7718    7.7631   -0.4611 H           1 H52       0.0643
     41 H19        17.8670    9.8148    0.7667 H           1 H52       0.0642
     42 H20        16.5731   11.6696    0.0898 H           1 H52       0.0657
     43 H21        17.1112    6.4889   -2.3876 H           1 H52       0.0786
     44 H22        15.1567    8.0803   -5.5315 H           1 H52       0.0687
@<TRIPOS>BOND
     1     1     2   2
     2     2     3   2
     3     2     4  am
     4     2    12   1
     5     4     5   1
     6     4    11   1
     7     5     6   1
     8     5     7   1
     9     7     8   1
    10     8     9   1
    11     9    10   1
    12    10    11   1
    13    12    13  ar
    14    12    19  ar
    15    13    14  ar
    16    13    16  ar
    17    14    15   1
    18    14    22  ar
    19    16    17  ar
    20    16    20  ar
    21    17    18  ar
    22    18    19  ar
    23    20    21  ar
    24    21    22  ar
    25     5    23   1
    26     6    24   1
    27     6    25   1
    28     6    26   1
    29     7    27   1
    30     7    28   1
    31     8    29   1
    32     8    30   1
    33     9    31   1
    34     9    32   1
    35    10    33   1
    36    10    34   1
    37    11    35   1
    38    11    36   1
    39    15    37   1
    40    15    38   1
    41    15    39   1
    42    17    40   1
    43    18    41   1
    44    19    42   1
    45    20    43   1
    46    22    44   1
@<TRIPOS>SUBSTRUCTURE
     1  H52      5

