@<TRIPOS>MOLECULE
1q8u_ligand_068
    44    46
SMALL
GAST_HUCK
****
This file was generated by PARSER (from files_GN.cpp)

@<TRIPOS>ATOM
      1 O1         18.4591    7.9106    0.3276 O.2         1 H52      -0.1497
      2 S5         16.8901    8.1015    0.1321 S.o2        1 H52       0.0732
      3 O2         16.5370    6.5574   -0.0389 O.2         1 H52      -0.1497
      4 N21        16.4556    8.7996   -1.3574 N.am        1 H52      -0.2257
      5 C22        16.9484    8.1976   -2.5907 C.3         1 H52       0.0778
      6 C2M        15.9276    8.1794   -3.7621 C.3         1 H52      -0.0402
      7 C23        18.3089    8.8231   -3.0119 C.3         1 H52      -0.0136
      8 N24        18.2437   10.2494   -3.3939 N.4         1 H52       0.2284
      9 C25        17.8900   11.2020   -2.3219 C.3         1 H52      -0.0321
     10 C26        16.3672   11.2736   -2.0587 C.3         1 H52       0.0045
     11 C27        15.7098   10.0436   -1.3606 C.3         1 H52       0.0350
     12 C5         15.9789    8.5225    1.5844 C.ar        1 H52       0.1228
     13 C10        16.4411    9.3087    2.7004 C.ar        1 H52       0.0294
     14 C4         17.5727   10.1939    2.7306 C.ar        1 H52      -0.0110
     15 CM         18.2867   10.7198    1.5391 C.3         1 H52      -0.0231
     16 C9         15.6712    9.2216    3.9137 C.ar        1 H52       0.0043
     17 C8         14.4426    8.5285    3.9640 C.ar        1 H52      -0.0481
     18 C7         13.9415    7.9092    2.8201 C.ar        1 H52      -0.0552
     19 C6         14.7049    7.9063    1.6494 C.ar        1 H52      -0.0302
     20 C1         16.1224    9.8472    5.0947 C.ar        1 H52       0.0104
     21 N2         17.2474   10.5834    5.0821 N.ar        1 H52      -0.3085
     22 C3         17.9652   10.7751    3.9625 C.ar        1 H52       0.0074
     23 H1         17.1602    7.1384   -2.4100 H           1 H52       0.0564
     24 H2         16.3328    7.6211   -4.6101 H           1 H52       0.0250
     25 H3         15.6900    9.1872   -4.1038 H           1 H52       0.0250
     26 H4         15.0043    7.6926   -3.4445 H           1 H52       0.0250
     27 H5         18.6969    8.2776   -3.8748 H           1 H52       0.0832
     28 H6         19.0389    8.6987   -2.2088 H           1 H52       0.0832
     29 H7         17.5739   10.3528   -4.1598 H           1 H52       0.2014
     30 H8         19.1656   10.5133   -3.7469 H           1 H52       0.2014
     31 H9         18.2197   12.1886   -2.6521 H           1 H52       0.0814
     32 H10        18.4397   10.9713   -1.4088 H           1 H52       0.0814
     33 H11        15.8687   11.4508   -3.0167 H           1 H52       0.0333
     34 H12        16.1771   12.1622   -1.4475 H           1 H52       0.0333
     35 H13        15.4582   10.3479   -0.3423 H           1 H52       0.0480
     36 H14        14.7437    9.8550   -1.8353 H           1 H52       0.0480
     37 H15        18.7725   11.6816    1.7291 H           1 H52       0.0421
     38 H16        17.5781   10.9065    0.7423 H           1 H52       0.0421
     39 H17        19.0533   10.0252    1.2081 H           1 H52       0.0421
     40 H18        13.8902    8.4912    4.8250 H           1 H52       0.0643
     41 H19        13.0393    7.4246    2.8514 H           1 H52       0.0642
     42 H20        14.3185    7.3975    0.8471 H           1 H52       0.0657
     43 H21        15.6044    9.7681    5.9748 H           1 H52       0.0786
     44 H22        18.7807   11.3867    4.0278 H           1 H52       0.0687
@<TRIPOS>BOND
     1     1     2   2
     2     2     3   2
     3     2     4  am
     4     2    12   1
     5     4     5   1
     6     4    11   1
     7     5     6   1
     8     5     7   1
     9     7     8   1
    10     8     9   1
    11     9    10   1
    12    10    11   1
    13    12    13  ar
    14    12    19  ar
    15    13    14  ar
    16    13    16  ar
    17    14    15   1
    18    14    22  ar
    19    16    17  ar
    20    16    20  ar
    21    17    18  ar
    22    18    19  ar
    23    20    21  ar
    24    21    22  ar
    25     5    23   1
    26     6    24   1
    27     6    25   1
    28     6    26   1
    29     7    27   1
    30     7    28   1
    31     8    29   1
    32     8    30   1
    33     9    31   1
    34     9    32   1
    35    10    33   1
    36    10    34   1
    37    11    35   1
    38    11    36   1
    39    15    37   1
    40    15    38   1
    41    15    39   1
    42    17    40   1
    43    18    41   1
    44    19    42   1
    45    20    43   1
    46    22    44   1
@<TRIPOS>SUBSTRUCTURE
     1  H52      5

