@<TRIPOS>MOLECULE
1q8u_ligand_062
    44    46
SMALL
GAST_HUCK
****
This file was generated by PARSER (from files_GN.cpp)

@<TRIPOS>ATOM
      1 O1         10.5483   11.6343    2.8749 O.2         1 H52      -0.1497
      2 S5          9.4287   10.5444    3.1699 S.o2        1 H52       0.0732
      3 O2          8.9504   11.3029    4.4818 O.2         1 H52      -0.1497
      4 N21        10.3495    9.1567    3.5197 N.am        1 H52      -0.2257
      5 C22        11.1922    8.5512    2.4901 C.3         1 H52       0.0778
      6 C2M        12.6297    9.1376    2.5611 C.3         1 H52      -0.0402
      7 C23        11.2591    6.9871    2.5208 C.3         1 H52      -0.0136
      8 N24         9.9801    6.2401    2.5637 N.4         1 H52       0.2284
      9 C25         8.8295    6.7770    3.3199 C.3         1 H52      -0.0321
     10 C26         9.1373    7.3374    4.7341 C.3         1 H52       0.0045
     11 C27        10.1714    8.4988    4.7903 C.3         1 H52       0.0350
     12 C5          8.3736   10.4143    1.7543 C.ar        1 H52       0.1228
     13 C10         7.0217    9.9021    1.6863 C.ar        1 H52       0.0294
     14 C4          6.0662    9.8085    2.7613 C.ar        1 H52      -0.0110
     15 CM          6.2304   10.3994    4.1100 C.3         1 H52      -0.0231
     16 C9          6.5622    9.4450    0.3999 C.ar        1 H52       0.0043
     17 C8          7.3444    9.5934   -0.7616 C.ar        1 H52      -0.0481
     18 C7          8.5817   10.2290   -0.6984 C.ar        1 H52      -0.0552
     19 C6          9.0852   10.6270    0.5417 C.ar        1 H52      -0.0302
     20 C1          5.3019    8.8274    0.2572 C.ar        1 H52       0.0104
     21 N2          4.4779    8.7217    1.3129 N.ar        1 H52      -0.3085
     22 C3          4.8099    9.1974    2.5265 C.ar        1 H52       0.0074
     23 H1         10.7963    8.7950    1.5038 H           1 H52       0.0564
     24 H2         13.2404    8.7386    1.7498 H           1 H52       0.0250
     25 H3         13.0961    8.8868    3.5145 H           1 H52       0.0250
     26 H4         12.6156   10.2213    2.4613 H           1 H52       0.0250
     27 H5         11.8491    6.6614    3.3796 H           1 H52       0.0832
     28 H6         11.7878    6.6449    1.6306 H           1 H52       0.0832
     29 H7         10.2005    5.3198    2.9579 H           1 H52       0.2014
     30 H8          9.6512    6.0968    1.6069 H           1 H52       0.2014
     31 H9          8.1070    5.9665    3.4111 H           1 H52       0.0814
     32 H10         8.3520    7.5492    2.7152 H           1 H52       0.0814
     33 H11         9.4927    6.5197    5.3651 H           1 H52       0.0333
     34 H12         8.1935    7.6870    5.1602 H           1 H52       0.0333
     35 H13         9.8781    9.2023    5.5713 H           1 H52       0.0480
     36 H14        11.1397    8.1083    5.1155 H           1 H52       0.0480
     37 H15         5.3199   10.3792    4.7145 H           1 H52       0.0421
     38 H16         6.5155   11.4494    4.0064 H           1 H52       0.0421
     39 H17         6.9743    9.8333    4.6636 H           1 H52       0.0421
     40 H18         7.0121    9.2653   -1.6709 H           1 H52       0.0643
     41 H19         9.1380   10.3555   -1.5435 H           1 H52       0.0642
     42 H20        10.0342   11.0106    0.5394 H           1 H52       0.0657
     43 H21         4.9832    8.4553   -0.6386 H           1 H52       0.0786
     44 H22         4.1088    9.1135    3.2644 H           1 H52       0.0687
@<TRIPOS>BOND
     1     1     2   2
     2     2     3   2
     3     2     4  am
     4     2    12   1
     5     4     5   1
     6     4    11   1
     7     5     6   1
     8     5     7   1
     9     7     8   1
    10     8     9   1
    11     9    10   1
    12    10    11   1
    13    12    13  ar
    14    12    19  ar
    15    13    14  ar
    16    13    16  ar
    17    14    15   1
    18    14    22  ar
    19    16    17  ar
    20    16    20  ar
    21    17    18  ar
    22    18    19  ar
    23    20    21  ar
    24    21    22  ar
    25     5    23   1
    26     6    24   1
    27     6    25   1
    28     6    26   1
    29     7    27   1
    30     7    28   1
    31     8    29   1
    32     8    30   1
    33     9    31   1
    34     9    32   1
    35    10    33   1
    36    10    34   1
    37    11    35   1
    38    11    36   1
    39    15    37   1
    40    15    38   1
    41    15    39   1
    42    17    40   1
    43    18    41   1
    44    19    42   1
    45    20    43   1
    46    22    44   1
@<TRIPOS>SUBSTRUCTURE
     1  H52      5

