@<TRIPOS>MOLECULE
1q8u_ligand_088
    44    46
SMALL
GAST_HUCK
****
This file was generated by PARSER (from files_GN.cpp)

@<TRIPOS>ATOM
      1 O1         15.9241   13.2400   -1.1662 O.2         1 H52      -0.1497
      2 S5         15.0132   11.9840   -0.8179 S.o2        1 H52       0.0732
      3 O2         14.6760   11.3015   -2.2216 O.2         1 H52      -0.1497
      4 N21        13.5165   12.5243   -0.2243 N.am        1 H52      -0.2257
      5 C22        13.4424   13.8224    0.4214 C.3         1 H52       0.0778
      6 C2M        13.1864   14.9188   -0.6500 C.3         1 H52      -0.0402
      7 C23        12.4009   13.9381    1.5784 C.3         1 H52      -0.0136
      8 N24        12.3564   12.7777    2.4996 N.4         1 H52       0.2284
      9 C25        11.5395   11.6125    2.0831 C.3         1 H52      -0.0321
     10 C26        12.0449   10.8238    0.8483 C.3         1 H52       0.0045
     11 C27        12.3390   11.6985   -0.3942 C.3         1 H52       0.0350
     12 C5         15.9084   10.8934    0.2264 C.ar        1 H52       0.1228
     13 C10        16.8222    9.8817   -0.2021 C.ar        1 H52       0.0294
     14 C4         17.5619    9.8723   -1.4352 C.ar        1 H52      -0.0110
     15 CM         17.8133   11.0744   -2.2751 C.3         1 H52      -0.0231
     16 C9         17.0533    8.7946    0.7081 C.ar        1 H52       0.0043
     17 C8         16.5495    8.8158    2.0306 C.ar        1 H52      -0.0481
     18 C7         15.8197    9.9168    2.4782 C.ar        1 H52      -0.0552
     19 C6         15.5044   10.9384    1.5791 C.ar        1 H52      -0.0302
     20 C1         17.8232    7.6903    0.3149 C.ar        1 H52       0.0104
     21 N2         18.4094    7.6826   -0.9006 N.ar        1 H52      -0.3085
     22 C3         18.3036    8.7156   -1.7636 C.ar        1 H52       0.0074
     23 H1         14.4153   14.0399    0.8792 H           1 H52       0.0564
     24 H2         13.1793   15.9082   -0.1902 H           1 H52       0.0250
     25 H3         12.2238   14.7583   -1.1396 H           1 H52       0.0250
     26 H4         13.9628   14.9083   -1.4147 H           1 H52       0.0250
     27 H5         11.4033   14.1278    1.1765 H           1 H52       0.0832
     28 H6         12.6656   14.8065    2.1852 H           1 H52       0.0832
     29 H7         11.9593   13.1136    3.3796 H           1 H52       0.2014
     30 H8         13.3042   12.4686    2.6941 H           1 H52       0.2014
     31 H9         10.5170   11.9388    1.8962 H           1 H52       0.0814
     32 H10        11.5086   10.9244    2.9300 H           1 H52       0.0814
     33 H11        11.2753   10.0948    0.5796 H           1 H52       0.0333
     34 H12        12.9329   10.2533    1.1136 H           1 H52       0.0333
     35 H13        12.4382   11.0299   -1.2540 H           1 H52       0.0480
     36 H14        11.4666   12.3220   -0.6059 H           1 H52       0.0480
     37 H15        18.6406   10.9413   -2.9711 H           1 H52       0.0421
     38 H16        18.0689   11.9155   -1.6287 H           1 H52       0.0421
     39 H17        16.9582   11.3194   -2.8950 H           1 H52       0.0421
     40 H18        16.7346    8.0502    2.6834 H           1 H52       0.0643
     41 H19        15.4770    9.9523    3.4406 H           1 H52       0.0642
     42 H20        14.9184   11.6961    1.9191 H           1 H52       0.0657
     43 H21        17.9749    6.8893    0.9331 H           1 H52       0.0786
     44 H22        18.8303    8.6509   -2.6386 H           1 H52       0.0687
@<TRIPOS>BOND
     1     1     2   2
     2     2     3   2
     3     2     4  am
     4     2    12   1
     5     4     5   1
     6     4    11   1
     7     5     6   1
     8     5     7   1
     9     7     8   1
    10     8     9   1
    11     9    10   1
    12    10    11   1
    13    12    13  ar
    14    12    19  ar
    15    13    14  ar
    16    13    16  ar
    17    14    15   1
    18    14    22  ar
    19    16    17  ar
    20    16    20  ar
    21    17    18  ar
    22    18    19  ar
    23    20    21  ar
    24    21    22  ar
    25     5    23   1
    26     6    24   1
    27     6    25   1
    28     6    26   1
    29     7    27   1
    30     7    28   1
    31     8    29   1
    32     8    30   1
    33     9    31   1
    34     9    32   1
    35    10    33   1
    36    10    34   1
    37    11    35   1
    38    11    36   1
    39    15    37   1
    40    15    38   1
    41    15    39   1
    42    17    40   1
    43    18    41   1
    44    19    42   1
    45    20    43   1
    46    22    44   1
@<TRIPOS>SUBSTRUCTURE
     1  H52      5

