@<TRIPOS>MOLECULE
1q8u_ligand_014
    44    46
SMALL
GAST_HUCK
****
This file was generated by PARSER (from files_GN.cpp)

@<TRIPOS>ATOM
      1 O1         18.5099    8.0382   -0.1616 O.2         1 H52      -0.1497
      2 S5         16.9520    8.0491   -0.4638 S.o2        1 H52       0.0732
      3 O2         16.5395    6.5233   -0.2885 O.2         1 H52      -0.1497
      4 N21        16.9247    8.3694   -2.1356 N.am        1 H52      -0.2257
      5 C22        16.9601    9.7431   -2.6133 C.3         1 H52       0.0778
      6 C2M        18.4163   10.2991   -2.6684 C.3         1 H52      -0.0402
      7 C23        16.1909    9.9661   -3.9594 C.3         1 H52      -0.0136
      8 N24        14.9882    9.1108   -4.1421 N.4         1 H52       0.2284
      9 C25        15.2129    7.7512   -4.6869 C.3         1 H52      -0.0321
     10 C26        15.8343    6.7667   -3.6711 C.3         1 H52       0.0045
     11 C27        17.1584    7.2767   -3.0555 C.3         1 H52       0.0350
     12 C5         15.8294    8.8324    0.6652 C.ar        1 H52       0.1228
     13 C10        15.7939    8.7724    2.1126 C.ar        1 H52       0.0294
     14 C4         16.6903    8.0633    2.9963 C.ar        1 H52      -0.0110
     15 CM         17.9492    7.3751    2.6131 C.3         1 H52      -0.0231
     16 C9         14.7128    9.4781    2.7606 C.ar        1 H52       0.0043
     17 C8         13.7748   10.2401    2.0355 C.ar        1 H52      -0.0481
     18 C7         13.8096   10.2549    0.6455 C.ar        1 H52      -0.0552
     19 C6         14.7857    9.5099   -0.0160 C.ar        1 H52      -0.0302
     20 C1         14.5289    9.4168    4.1577 C.ar        1 H52       0.0104
     21 N2         15.3625    8.6881    4.9145 N.ar        1 H52      -0.3085
     22 C3         16.4081    8.0284    4.3863 C.ar        1 H52       0.0074
     23 H1         16.4584   10.3830   -1.8906 H           1 H52       0.0564
     24 H2         18.4256   11.3281   -3.0381 H           1 H52       0.0250
     25 H3         19.0434    9.6908   -3.3242 H           1 H52       0.0250
     26 H4         18.8618   10.3024   -1.6702 H           1 H52       0.0250
     27 H5         16.8647    9.8357   -4.8064 H           1 H52       0.0832
     28 H6         15.8451   11.0017   -3.9918 H           1 H52       0.0832
     29 H7         14.3744    9.5905   -4.8058 H           1 H52       0.2014
     30 H8         14.4847    9.0200   -3.2504 H           1 H52       0.2014
     31 H9         15.8354    7.7995   -5.5865 H           1 H52       0.0814
     32 H10        14.2455    7.3489   -4.9921 H           1 H52       0.0814
     33 H11        16.0324    5.8246   -4.1906 H           1 H52       0.0333
     34 H12        15.1169    6.5626   -2.8731 H           1 H52       0.0333
     35 H13        17.6479    6.4355   -2.5625 H           1 H52       0.0480
     36 H14        17.8381    7.5795   -3.8604 H           1 H52       0.0480
     37 H15        18.4655    6.9017    3.4499 H           1 H52       0.0421
     38 H16        18.6430    8.1103    2.2152 H           1 H52       0.0421
     39 H17        17.7532    6.5826    1.8960 H           1 H52       0.0421
     40 H18        13.0292   10.7616    2.5060 H           1 H52       0.0643
     41 H19        13.1115   10.7789    0.1147 H           1 H52       0.0642
     42 H20        14.6959    9.4698   -1.0292 H           1 H52       0.0657
     43 H21        13.7543    9.8967    4.6231 H           1 H52       0.0786
     44 H22        16.9948    7.5123    5.0416 H           1 H52       0.0687
@<TRIPOS>BOND
     1     1     2   2
     2     2     3   2
     3     2     4  am
     4     2    12   1
     5     4     5   1
     6     4    11   1
     7     5     6   1
     8     5     7   1
     9     7     8   1
    10     8     9   1
    11     9    10   1
    12    10    11   1
    13    12    13  ar
    14    12    19  ar
    15    13    14  ar
    16    13    16  ar
    17    14    15   1
    18    14    22  ar
    19    16    17  ar
    20    16    20  ar
    21    17    18  ar
    22    18    19  ar
    23    20    21  ar
    24    21    22  ar
    25     5    23   1
    26     6    24   1
    27     6    25   1
    28     6    26   1
    29     7    27   1
    30     7    28   1
    31     8    29   1
    32     8    30   1
    33     9    31   1
    34     9    32   1
    35    10    33   1
    36    10    34   1
    37    11    35   1
    38    11    36   1
    39    15    37   1
    40    15    38   1
    41    15    39   1
    42    17    40   1
    43    18    41   1
    44    19    42   1
    45    20    43   1
    46    22    44   1
@<TRIPOS>SUBSTRUCTURE
     1  H52      5

