@<TRIPOS>MOLECULE
1q8u_ligand_082
    44    46
SMALL
GAST_HUCK
****
This file was generated by PARSER (from files_GN.cpp)

@<TRIPOS>ATOM
      1 O1         14.8079   12.1287   -1.4142 O.2         1 H52      -0.1497
      2 S5         15.5247   10.9532   -0.6169 S.o2        1 H52       0.0732
      3 O2         16.7725   11.8898   -0.3167 O.2         1 H52      -0.1497
      4 N21        16.2051    9.7841   -1.6530 N.am        1 H52      -0.2257
      5 C22        15.4955    9.3756   -2.8571 C.3         1 H52       0.0778
      6 C2M        15.8855   10.3037   -4.0408 C.3         1 H52      -0.0402
      7 C23        15.7011    7.8810   -3.2784 C.3         1 H52      -0.0136
      8 N24        15.4342    6.8559   -2.2462 N.4         1 H52       0.2284
      9 C25        15.8477    7.0900   -0.8458 C.3         1 H52      -0.0321
     10 C26        17.2507    7.7243   -0.6499 C.3         1 H52       0.0045
     11 C27        17.4486    9.1330   -1.2945 C.3         1 H52       0.0350
     12 C5         14.9633   10.4680    0.9862 C.ar        1 H52       0.1228
     13 C10        13.6307   10.4466    1.5509 C.ar        1 H52       0.0294
     14 C4         12.3925   10.8226    0.9102 C.ar        1 H52      -0.0110
     15 CM         12.2246   11.2926   -0.4854 C.3         1 H52      -0.0231
     16 C9         13.5083    9.9739    2.9051 C.ar        1 H52       0.0043
     17 C8         14.6188    9.5205    3.6490 C.ar        1 H52      -0.0481
     18 C7         15.8908    9.5464    3.0847 C.ar        1 H52      -0.0552
     19 C6         16.0513   10.0251    1.7834 C.ar        1 H52      -0.0302
     20 C1         12.2599    9.9349    3.5652 C.ar        1 H52       0.0104
     21 N2         11.1482   10.3350    2.9265 N.ar        1 H52      -0.3085
     22 C3         11.1825   10.7644    1.6534 C.ar        1 H52       0.0074
     23 H1         14.4208    9.5021   -2.6999 H           1 H52       0.0564
     24 H2         15.3500   10.0099   -4.9477 H           1 H52       0.0250
     25 H3         16.9581   10.2496   -4.2388 H           1 H52       0.0250
     26 H4         15.6235   11.3385   -3.8180 H           1 H52       0.0250
     27 H5         16.7203    7.7266   -3.6360 H           1 H52       0.0832
     28 H6         15.0403    7.6554   -4.1161 H           1 H52       0.0832
     29 H7         15.8844    5.9962   -2.5541 H           1 H52       0.2014
     30 H8         14.4320    6.6787   -2.2319 H           1 H52       0.2014
     31 H9         15.8299    6.1206   -0.3406 H           1 H52       0.0814
     32 H10        15.0989    7.7132   -0.3574 H           1 H52       0.0814
     33 H11        18.0004    7.0386   -1.0548 H           1 H52       0.0333
     34 H12        17.4337    7.7967    0.4255 H           1 H52       0.0333
     35 H13        18.0633    9.7425   -0.6286 H           1 H52       0.0480
     36 H14        18.0577    9.0232   -2.1978 H           1 H52       0.0480
     37 H15        11.1809   11.3305   -0.8116 H           1 H52       0.0421
     38 H16        12.7336   10.6159   -1.1711 H           1 H52       0.0421
     39 H17        12.5950   12.3146   -0.5589 H           1 H52       0.0421
     40 H18        14.5192    9.1760    4.6128 H           1 H52       0.0643
     41 H19        16.7000    9.2281    3.6282 H           1 H52       0.0642
     42 H20        17.0095   10.0366    1.4384 H           1 H52       0.0657
     43 H21        12.1703    9.6116    4.5310 H           1 H52       0.0786
     44 H22        10.2860   11.0417    1.2436 H           1 H52       0.0687
@<TRIPOS>BOND
     1     1     2   2
     2     2     3   2
     3     2     4  am
     4     2    12   1
     5     4     5   1
     6     4    11   1
     7     5     6   1
     8     5     7   1
     9     7     8   1
    10     8     9   1
    11     9    10   1
    12    10    11   1
    13    12    13  ar
    14    12    19  ar
    15    13    14  ar
    16    13    16  ar
    17    14    15   1
    18    14    22  ar
    19    16    17  ar
    20    16    20  ar
    21    17    18  ar
    22    18    19  ar
    23    20    21  ar
    24    21    22  ar
    25     5    23   1
    26     6    24   1
    27     6    25   1
    28     6    26   1
    29     7    27   1
    30     7    28   1
    31     8    29   1
    32     8    30   1
    33     9    31   1
    34     9    32   1
    35    10    33   1
    36    10    34   1
    37    11    35   1
    38    11    36   1
    39    15    37   1
    40    15    38   1
    41    15    39   1
    42    17    40   1
    43    18    41   1
    44    19    42   1
    45    20    43   1
    46    22    44   1
@<TRIPOS>SUBSTRUCTURE
     1  H52      5

