@<TRIPOS>MOLECULE
1q8u_ligand_071
    44    46
SMALL
GAST_HUCK
****
This file was generated by PARSER (from files_GN.cpp)

@<TRIPOS>ATOM
      1 O1         17.9329    9.6645    3.6248 O.2         1 H52      -0.1497
      2 S5         17.5388    8.5110    4.6560 S.o2        1 H52       0.0732
      3 O2         18.5557    7.3092    4.4269 O.2         1 H52      -0.1497
      4 N21        16.0580    7.8229    4.1564 N.am        1 H52      -0.2257
      5 C22        15.6737    7.8479    2.7487 C.3         1 H52       0.0778
      6 C2M        16.6047    6.9362    1.8923 C.3         1 H52      -0.0402
      7 C23        14.1882    7.4714    2.4248 C.3         1 H52      -0.0136
      8 N24        13.2095    8.1627    3.2895 N.4         1 H52       0.2284
      9 C25        12.8875    7.4862    4.5652 C.3         1 H52      -0.0321
     10 C26        14.0412    7.5164    5.5933 C.3         1 H52       0.0045
     11 C27        15.3863    6.9375    5.0839 C.3         1 H52       0.0350
     12 C5         17.4710    9.2891    6.2361 C.ar        1 H52       0.1228
     13 C10        18.2154    8.9627    7.4212 C.ar        1 H52       0.0294
     14 C4         19.4825    8.2962    7.4790 C.ar        1 H52      -0.0110
     15 CM         20.4758    8.2943    6.3735 C.3         1 H52      -0.0231
     16 C9         17.6412    9.3412    8.6810 C.ar        1 H52       0.0043
     17 C8         16.5082   10.1789    8.7448 C.ar        1 H52      -0.0481
     18 C7         15.9286   10.6564    7.5650 C.ar        1 H52      -0.0552
     19 C6         16.3891   10.1904    6.3301 C.ar        1 H52      -0.0302
     20 C1         18.2067    8.8817    9.8930 C.ar        1 H52       0.0104
     21 N2         19.3294    8.1337    9.8808 N.ar        1 H52      -0.3085
     22 C3         19.9716    7.8429    8.7316 C.ar        1 H52       0.0074
     23 H1         15.7952    8.8788    2.3924 H           1 H52       0.0564
     24 H2         16.2696    6.9095    0.8483 H           1 H52       0.0250
     25 H3         16.5982    5.9156    2.2899 H           1 H52       0.0250
     26 H4         17.6322    7.3133    1.8993 H           1 H52       0.0250
     27 H5         14.0417    6.3818    2.4631 H           1 H52       0.0832
     28 H6         13.9722    7.7748    1.3923 H           1 H52       0.0832
     29 H7         12.3384    8.2418    2.7599 H           1 H52       0.2014
     30 H8         13.5570    9.1030    3.4857 H           1 H52       0.2014
     31 H9         12.5774    6.4531    4.3789 H           1 H52       0.0814
     32 H10        12.0306    8.0052    4.9989 H           1 H52       0.0814
     33 H11        13.7319    6.9378    6.4672 H           1 H52       0.0333
     34 H12        14.1881    8.5442    5.9189 H           1 H52       0.0333
     35 H13        16.0148    6.7278    5.9550 H           1 H52       0.0480
     36 H14        15.2147    5.9669    4.6091 H           1 H52       0.0480
     37 H15        21.5083    8.4188    6.7536 H           1 H52       0.0421
     38 H16        20.2899    9.1442    5.6925 H           1 H52       0.0421
     39 H17        20.4462    7.3433    5.8112 H           1 H52       0.0421
     40 H18        16.0998   10.4670    9.6446 H           1 H52       0.0643
     41 H19        15.1160   11.2768    7.6035 H           1 H52       0.0642
     42 H20        15.8716   10.4718    5.5013 H           1 H52       0.0657
     43 H21        17.7798    9.1088   10.8066 H           1 H52       0.0786
     44 H22        20.8575    7.3379    8.8077 H           1 H52       0.0687
@<TRIPOS>BOND
     1     1     2   2
     2     2     3   2
     3     2     4  am
     4     2    12   1
     5     4     5   1
     6     4    11   1
     7     5     6   1
     8     5     7   1
     9     7     8   1
    10     8     9   1
    11     9    10   1
    12    10    11   1
    13    12    13  ar
    14    12    19  ar
    15    13    14  ar
    16    13    16  ar
    17    14    15   1
    18    14    22  ar
    19    16    17  ar
    20    16    20  ar
    21    17    18  ar
    22    18    19  ar
    23    20    21  ar
    24    21    22  ar
    25     5    23   1
    26     6    24   1
    27     6    25   1
    28     6    26   1
    29     7    27   1
    30     7    28   1
    31     8    29   1
    32     8    30   1
    33     9    31   1
    34     9    32   1
    35    10    33   1
    36    10    34   1
    37    11    35   1
    38    11    36   1
    39    15    37   1
    40    15    38   1
    41    15    39   1
    42    17    40   1
    43    18    41   1
    44    19    42   1
    45    20    43   1
    46    22    44   1
@<TRIPOS>SUBSTRUCTURE
     1  H52      5

