@<TRIPOS>MOLECULE
1qi0_ligand_053
    45    46
SMALL
GAST_HUCK
****
This file was generated by PARSER (from files_GN.cpp)

@<TRIPOS>ATOM
      1 C1          2.0588   41.6264   14.1033 C.3         1 CBI       0.1884
      2 C2          2.8968   41.4526   15.3951 C.3         1 CBI       0.1341
      3 C3          3.1320   39.9472   15.6997 C.3         1 CBI       0.1141
      4 C4          1.8116   39.1266   15.6532 C.3         1 CBI       0.1119
      5 C5          1.0302   39.4329   14.3397 C.3         1 CBI       0.1130
      6 C6         -0.3622   38.7517   14.2628 C.3         1 CBI       0.0730
      7 O2          4.1616   42.1012   15.2770 O.3         1 CBI      -0.3841
      8 O3          3.7335   39.7915   16.9777 O.3         1 CBI      -0.3864
      9 O4          2.0802   37.7253   15.7599 O.3         1 CBI      -0.3865
     10 O5          0.8408   40.8634   14.2123 O.3         1 CBI      -0.3405
     11 O6         -1.0607   38.7320   15.5119 O.3         1 CBI      -0.3924
     12 C1'        -0.1278   43.1669   10.0408 C.3         1 CBI       0.1854
     13 C2'         1.1443   44.0306   10.2245 C.3         1 CBI       0.1339
     14 C3'         1.9329   43.5563   11.4778 C.3         1 CBI       0.1144
     15 C4'         1.0162   43.4796   12.7385 C.3         1 CBI       0.1184
     16 C5'        -0.3195   42.7193   12.4206 C.3         1 CBI       0.1134
     17 C6'        -1.3629   42.8278   13.5615 C.3         1 CBI       0.0730
     18 O1'        -0.9128   43.6450    8.9528 O.3         1 CBI      -0.3649
     19 O2'         1.9725   43.9515    9.0634 O.3         1 CBI      -0.3841
     20 O3'         3.0182   44.4423   11.7337 O.3         1 CBI      -0.3864
     21 O4'         1.7306   43.0248   13.9232 O.3         1 CBI      -0.3401
     22 O5'        -0.9503   43.2212   11.2221 O.3         1 CBI      -0.3407
     23 O6'        -2.2006   43.9708   13.4163 O.3         1 CBI      -0.3924
     24 H1          2.6549   41.2749   13.2577 H           1 CBI       0.0938
     25 H2          2.3644   41.9073   16.2315 H           1 CBI       0.0671
     26 H3          3.8236   39.5384   14.9540 H           1 CBI       0.0648
     27 H4          1.1887   39.4106   16.5087 H           1 CBI       0.0647
     28 H5          1.6062   39.0682   13.4822 H           1 CBI       0.0647
     29 H6         -0.2600   37.7141   13.9097 H           1 CBI       0.0584
     30 H7         -0.9923   39.2895   13.5300 H           1 CBI       0.0584
     31 H8          3.9639   42.9914   14.9207 H           1 CBI       0.2101
     32 H9          3.0302   40.0138   17.6251 H           1 CBI       0.2100
     33 H10         2.5400   37.4895   14.9258 H           1 CBI       0.2100
     34 H11        -1.0253   39.6566   15.8342 H           1 CBI       0.2095
     35 H12         0.1433   42.1252    9.8252 H           1 CBI       0.0935
     36 H13         0.8543   45.0759   10.3579 H           1 CBI       0.0671
     37 H14         2.3457   42.5700   11.2644 H           1 CBI       0.0648
     38 H15         0.7327   44.5145   12.9659 H           1 CBI       0.0651
     39 H16        -0.0981   41.6568   12.2563 H           1 CBI       0.0647
     40 H17        -0.8768   42.8759   14.5385 H           1 CBI       0.0584
     41 H18        -2.0066   41.9379   13.5522 H           1 CBI       0.0584
     42 H19        -1.7219   43.0892    8.9456 H           1 CBI       0.2126
     43 H20         2.2065   43.0051    8.9708 H           1 CBI       0.2101
     44 H21         3.6066   44.3625   10.9588 H           1 CBI       0.2100
     45 H22        -1.5853   44.7285   13.3143 H           1 CBI       0.2095
@<TRIPOS>BOND
     1     1    21   1
     2     1    10   1
     3     1     2   1
     4     2     7   1
     5     2     3   1
     6     3     8   1
     7     3     4   1
     8     4     9   1
     9     4     5   1
    10     5    10   1
    11     5     6   1
    12     6    11   1
    13    21    15   1
    14    15    16   1
    15    15    14   1
    16    14    20   1
    17    14    13   1
    18    13    19   1
    19    13    12   1
    20    12    22   1
    21    12    18   1
    22    22    16   1
    23    16    17   1
    24    17    23   1
    25     1    24   1
    26     2    25   1
    27     3    26   1
    28     4    27   1
    29     5    28   1
    30     6    29   1
    31     6    30   1
    32     7    31   1
    33     8    32   1
    34     9    33   1
    35    11    34   1
    36    12    35   1
    37    13    36   1
    38    14    37   1
    39    15    38   1
    40    16    39   1
    41    17    40   1
    42    17    41   1
    43    18    42   1
    44    19    43   1
    45    20    44   1
    46    23    45   1
@<TRIPOS>SUBSTRUCTURE
     1  CBI      1

