@<TRIPOS>MOLECULE
1qi0_ligand_006
    45    46
SMALL
GAST_HUCK
****
This file was generated by PARSER (from files_GN.cpp)

@<TRIPOS>ATOM
      1 C1         -2.8533   40.4537   12.8473 C.3         1 CBI       0.1884
      2 C2         -4.0362   39.6360   12.2693 C.3         1 CBI       0.1341
      3 C3         -4.7537   38.8790   13.4226 C.3         1 CBI       0.1141
      4 C4         -3.7514   38.0161   14.2301 C.3         1 CBI       0.1119
      5 C5         -2.5165   38.8666   14.6767 C.3         1 CBI       0.1130
      6 C6         -1.4038   37.9946   15.3121 C.3         1 CBI       0.0730
      7 O2         -4.9532   40.5025   11.5999 O.3         1 CBI      -0.3841
      8 O3         -5.7885   38.0488   12.8925 O.3         1 CBI      -0.3864
      9 O4         -4.4130   37.4537   15.3634 O.3         1 CBI      -0.3865
     10 O5         -1.9492   39.5774   13.5537 O.3         1 CBI      -0.3405
     11 O6         -0.1567   38.6868   15.3831 O.3         1 CBI      -0.3924
     12 C1'         0.9417   44.0327   11.9753 C.3         1 CBI       0.1854
     13 C2'         0.0974   43.8831   13.2676 C.3         1 CBI       0.1339
     14 C3'        -0.6761   42.5343   13.2666 C.3         1 CBI       0.1144
     15 C4'        -1.4930   42.3490   11.9402 C.3         1 CBI       0.1184
     16 C5'        -0.5420   42.5728   10.7166 C.3         1 CBI       0.1134
     17 C6'        -1.2527   42.5421    9.3393 C.3         1 CBI       0.0730
     18 O1'         1.4971   45.3427   11.8947 O.3         1 CBI      -0.3649
     19 O2'         0.9577   43.9635   14.4027 O.3         1 CBI      -0.3841
     20 O3'        -1.5289   42.5110   14.4134 O.3         1 CBI      -0.3864
     21 O4'        -2.0888   41.0383   11.7726 O.3         1 CBI      -0.3401
     22 O5'         0.1316   43.8486   10.8027 O.3         1 CBI      -0.3407
     23 O6'        -2.0798   43.6884    9.1452 O.3         1 CBI      -0.3924
     24 H1         -3.2722   41.2167   13.5162 H           1 CBI       0.0938
     25 H2         -3.6516   38.9128   11.5451 H           1 CBI       0.0671
     26 H3         -5.2201   39.6052   14.0936 H           1 CBI       0.0648
     27 H4         -3.4119   37.1937   13.5935 H           1 CBI       0.0647
     28 H5         -2.8314   39.5986   15.4277 H           1 CBI       0.0647
     29 H6         -1.2375   37.0896   14.7208 H           1 CBI       0.0584
     30 H7         -1.6894   37.6994   16.3269 H           1 CBI       0.0584
     31 H8         -4.4420   40.8981   10.8614 H           1 CBI       0.2101
     32 H9         -6.4189   38.6663   12.4640 H           1 CBI       0.2100
     33 H10        -3.7786   36.8168   15.7569 H           1 CBI       0.2100
     34 H11        -0.3085   39.4702   15.9598 H           1 CBI       0.2095
     35 H12         1.7709   43.3177   11.9786 H           1 CBI       0.0935
     36 H13        -0.6185   44.7103   13.3168 H           1 CBI       0.0671
     37 H14         0.0302   41.7040   13.3542 H           1 CBI       0.0648
     38 H15        -2.2898   43.0996   11.9034 H           1 CBI       0.0651
     39 H16         0.2107   41.7738   10.7088 H           1 CBI       0.0647
     40 H17        -1.8591   41.6387    9.2450 H           1 CBI       0.0584
     41 H18        -0.4962   42.5285    8.5479 H           1 CBI       0.0584
     42 H19         0.7493   45.9215   11.6255 H           1 CBI       0.2126
     43 H20         0.3942   43.8189   15.1928 H           1 CBI       0.2101
     44 H21        -0.9476   42.3333   15.1823 H           1 CBI       0.2100
     45 H22        -2.3881   43.6190    8.2167 H           1 CBI       0.2095
@<TRIPOS>BOND
     1     1    21   1
     2     1    10   1
     3     1     2   1
     4     2     7   1
     5     2     3   1
     6     3     8   1
     7     3     4   1
     8     4     9   1
     9     4     5   1
    10     5    10   1
    11     5     6   1
    12     6    11   1
    13    21    15   1
    14    15    16   1
    15    15    14   1
    16    14    20   1
    17    14    13   1
    18    13    19   1
    19    13    12   1
    20    12    22   1
    21    12    18   1
    22    22    16   1
    23    16    17   1
    24    17    23   1
    25     1    24   1
    26     2    25   1
    27     3    26   1
    28     4    27   1
    29     5    28   1
    30     6    29   1
    31     6    30   1
    32     7    31   1
    33     8    32   1
    34     9    33   1
    35    11    34   1
    36    12    35   1
    37    13    36   1
    38    14    37   1
    39    15    38   1
    40    16    39   1
    41    17    40   1
    42    17    41   1
    43    18    42   1
    44    19    43   1
    45    20    44   1
    46    23    45   1
@<TRIPOS>SUBSTRUCTURE
     1  CBI      1

