@<TRIPOS>MOLECULE
1qi0_ligand_020
    45    46
SMALL
GAST_HUCK
****
This file was generated by PARSER (from files_GN.cpp)

@<TRIPOS>ATOM
      1 C1          1.7790   42.0402   13.1892 C.3         1 CBI       0.1884
      2 C2          1.7476   41.8220   14.7273 C.3         1 CBI       0.1341
      3 C3          2.6288   40.6138   15.1398 C.3         1 CBI       0.1141
      4 C4          2.2616   39.3462   14.3258 C.3         1 CBI       0.1119
      5 C5          2.3657   39.6694   12.8016 C.3         1 CBI       0.1130
      6 C6          1.8591   38.5089   11.9011 C.3         1 CBI       0.0730
      7 O2          2.2182   43.0158   15.3497 O.3         1 CBI      -0.3841
      8 O3          2.4851   40.3363   16.5309 O.3         1 CBI      -0.3864
      9 O4          3.1303   38.2832   14.7105 O.3         1 CBI      -0.3865
     10 O5          1.5450   40.8117   12.4606 O.3         1 CBI      -0.3405
     11 O6          2.4292   38.6322   10.5968 O.3         1 CBI      -0.3924
     12 C1'        -2.7970   43.6827   10.7074 C.3         1 CBI       0.1854
     13 C2'        -2.9277   43.3944   12.2246 C.3         1 CBI       0.1339
     14 C3'        -1.5700   43.6067   12.9444 C.3         1 CBI       0.1144
     15 C4'        -0.4411   42.7940   12.2431 C.3         1 CBI       0.1184
     16 C5'        -0.4125   43.1592   10.7181 C.3         1 CBI       0.1134
     17 C6'         0.6195   42.3517    9.8862 C.3         1 CBI       0.0730
     18 O1'        -3.9822   43.3006   10.0189 O.3         1 CBI      -0.3649
     19 O2'        -3.9239   44.2409   12.7958 O.3         1 CBI      -0.3841
     20 O3'        -1.7109   43.1825   14.3004 O.3         1 CBI      -0.3864
     21 O4'         0.8513   43.0877   12.8363 O.3         1 CBI      -0.3401
     22 O5'        -1.7107   42.9329   10.1234 O.3         1 CBI      -0.3407
     23 O6'         0.3184   40.9588    9.8632 O.3         1 CBI      -0.3924
     24 H1          2.7697   42.4017   12.9232 H           1 CBI       0.0938
     25 H2          0.7143   41.6339   15.0264 H           1 CBI       0.0671
     26 H3          3.6810   40.8597   14.9585 H           1 CBI       0.0648
     27 H4          1.2292   39.0533   14.5595 H           1 CBI       0.0647
     28 H5          3.4076   39.8842   12.5453 H           1 CBI       0.0647
     29 H6          0.7642   38.5440   11.8045 H           1 CBI       0.0584
     30 H7          2.1295   37.5266   12.3164 H           1 CBI       0.0584
     31 H8          2.7516   42.7549   16.1281 H           1 CBI       0.2101
     32 H9          2.9842   41.0484   16.9898 H           1 CBI       0.2100
     33 H10         2.6720   37.4583   14.4501 H           1 CBI       0.2100
     34 H11         2.0409   37.8890   10.0624 H           1 CBI       0.2095
     35 H12        -2.6360   44.7513   10.5377 H           1 CBI       0.0935
     36 H13        -3.2465   42.3557   12.3421 H           1 CBI       0.0671
     37 H14        -1.3121   44.6675   12.9412 H           1 CBI       0.0648
     38 H15        -0.7147   41.7381   12.3530 H           1 CBI       0.0651
     39 H16        -0.1498   44.2212   10.6143 H           1 CBI       0.0647
     40 H17         1.6235   42.4899   10.2887 H           1 CBI       0.0584
     41 H18         0.6209   42.7159    8.8591 H           1 CBI       0.0584
     42 H19        -4.6653   43.9526   10.2907 H           1 CBI       0.2126
     43 H20        -3.9033   44.0704   13.7624 H           1 CBI       0.2101
     44 H21        -1.1391   43.7748   14.8326 H           1 CBI       0.2100
     45 H22        -0.5315   40.8806    9.3686 H           1 CBI       0.2095
@<TRIPOS>BOND
     1     1    21   1
     2     1    10   1
     3     1     2   1
     4     2     7   1
     5     2     3   1
     6     3     8   1
     7     3     4   1
     8     4     9   1
     9     4     5   1
    10     5    10   1
    11     5     6   1
    12     6    11   1
    13    21    15   1
    14    15    16   1
    15    15    14   1
    16    14    20   1
    17    14    13   1
    18    13    19   1
    19    13    12   1
    20    12    22   1
    21    12    18   1
    22    22    16   1
    23    16    17   1
    24    17    23   1
    25     1    24   1
    26     2    25   1
    27     3    26   1
    28     4    27   1
    29     5    28   1
    30     6    29   1
    31     6    30   1
    32     7    31   1
    33     8    32   1
    34     9    33   1
    35    11    34   1
    36    12    35   1
    37    13    36   1
    38    14    37   1
    39    15    38   1
    40    16    39   1
    41    17    40   1
    42    17    41   1
    43    18    42   1
    44    19    43   1
    45    20    44   1
    46    23    45   1
@<TRIPOS>SUBSTRUCTURE
     1  CBI      1

