@<TRIPOS>MOLECULE
1qi0_ligand_015
    45    46
SMALL
GAST_HUCK
****
This file was generated by PARSER (from files_GN.cpp)

@<TRIPOS>ATOM
      1 C1         -4.2917   42.1540   12.6192 C.3         1 CBI       0.1884
      2 C2         -5.1670   42.5842   11.4012 C.3         1 CBI       0.1341
      3 C3         -6.6846   42.3548   11.6734 C.3         1 CBI       0.1141
      4 C4         -6.9507   40.9253   12.2079 C.3         1 CBI       0.1119
      5 C5         -6.0460   40.6579   13.4471 C.3         1 CBI       0.1130
      6 C6         -6.2018   39.2317   14.0333 C.3         1 CBI       0.0730
      7 O2         -4.9385   43.9579   11.0742 O.3         1 CBI      -0.3841
      8 O3         -7.4355   42.5573   10.4749 O.3         1 CBI      -0.3864
      9 O4         -8.3309   40.7765   12.5405 O.3         1 CBI      -0.3865
     10 O5         -4.6560   40.8389   13.0923 O.3         1 CBI      -0.3405
     11 O6         -5.5749   38.2416   13.2178 O.3         1 CBI      -0.3924
     12 C1'         0.6924   44.2407   11.9605 C.3         1 CBI       0.1854
     13 C2'         0.0588   44.1312   13.3713 C.3         1 CBI       0.1339
     14 C3'        -0.9840   42.9801   13.3902 C.3         1 CBI       0.1144
     15 C4'        -2.0449   43.1857   12.2717 C.3         1 CBI       0.1184
     16 C5'        -1.3216   43.3629   10.8964 C.3         1 CBI       0.1134
     17 C6'        -2.2991   43.7436    9.7609 C.3         1 CBI       0.0730
     18 O1'         1.5395   45.3817   11.8922 O.3         1 CBI      -0.3649
     19 O2'         1.0738   43.9281   14.3564 O.3         1 CBI      -0.3841
     20 O3'        -1.6101   42.9183   14.6695 O.3         1 CBI      -0.3864
     21 O4'        -2.9119   42.0310   12.2201 O.3         1 CBI      -0.3401
     22 O5'        -0.3225   44.4012   10.9543 O.3         1 CBI      -0.3407
     23 O6'        -2.8480   45.0360    9.9924 O.3         1 CBI      -0.3924
     24 H1         -4.4080   42.8660   13.4423 H           1 CBI       0.0938
     25 H2         -4.8810   41.9837   10.5343 H           1 CBI       0.0671
     26 H3         -7.0267   43.0814   12.4200 H           1 CBI       0.0648
     27 H4         -6.7111   40.2014   11.4222 H           1 CBI       0.0647
     28 H5         -6.3183   41.3634   14.2413 H           1 CBI       0.0647
     29 H6         -7.2631   38.9771   14.1446 H           1 CBI       0.0584
     30 H7         -5.7356   39.1961   15.0252 H           1 CBI       0.0584
     31 H8         -5.1710   44.4366   11.9036 H           1 CBI       0.2101
     32 H9         -7.3682   43.5178   10.2876 H           1 CBI       0.2100
     33 H10        -8.4931   41.4269   13.2569 H           1 CBI       0.2100
     34 H11        -6.1374   38.1711   12.4157 H           1 CBI       0.2095
     35 H12         1.2919   43.3517   11.7460 H           1 CBI       0.0935
     36 H13        -0.4489   45.0741   13.5996 H           1 CBI       0.0671
     37 H14        -0.4706   42.0261   13.2279 H           1 CBI       0.0648
     38 H15        -2.6013   44.1027   12.4927 H           1 CBI       0.0651
     39 H16        -0.8376   42.4192   10.6207 H           1 CBI       0.0647
     40 H17        -3.1120   43.0132    9.7073 H           1 CBI       0.0584
     41 H18        -1.7686   43.7602    8.8019 H           1 CBI       0.0584
     42 H19         0.9699   46.0846   11.5087 H           1 CBI       0.2126
     43 H20         0.6043   43.7284   15.1970 H           1 CBI       0.2101
     44 H21        -0.9154   42.6178   15.2995 H           1 CBI       0.2100
     45 H22        -3.8136   44.9142    9.8698 H           1 CBI       0.2095
@<TRIPOS>BOND
     1     1    21   1
     2     1    10   1
     3     1     2   1
     4     2     7   1
     5     2     3   1
     6     3     8   1
     7     3     4   1
     8     4     9   1
     9     4     5   1
    10     5    10   1
    11     5     6   1
    12     6    11   1
    13    21    15   1
    14    15    16   1
    15    15    14   1
    16    14    20   1
    17    14    13   1
    18    13    19   1
    19    13    12   1
    20    12    22   1
    21    12    18   1
    22    22    16   1
    23    16    17   1
    24    17    23   1
    25     1    24   1
    26     2    25   1
    27     3    26   1
    28     4    27   1
    29     5    28   1
    30     6    29   1
    31     6    30   1
    32     7    31   1
    33     8    32   1
    34     9    33   1
    35    11    34   1
    36    12    35   1
    37    13    36   1
    38    14    37   1
    39    15    38   1
    40    16    39   1
    41    17    40   1
    42    17    41   1
    43    18    42   1
    44    19    43   1
    45    20    44   1
    46    23    45   1
@<TRIPOS>SUBSTRUCTURE
     1  CBI      1

