@<TRIPOS>MOLECULE
1qi0_ligand_014
    45    46
SMALL
GAST_HUCK
****
This file was generated by PARSER (from files_GN.cpp)

@<TRIPOS>ATOM
      1 C1          0.2059   38.6917   14.9304 C.3         1 CBI       0.1884
      2 C2          0.3981   37.6009   13.8239 C.3         1 CBI       0.1341
      3 C3         -0.3727   36.3007   14.1851 C.3         1 CBI       0.1141
      4 C4         -0.0210   35.8102   15.6137 C.3         1 CBI       0.1119
      5 C5         -0.2247   36.9652   16.6381 C.3         1 CBI       0.1130
      6 C6          0.2147   36.5728   18.0765 C.3         1 CBI       0.0730
      7 O2         -0.0820   38.0782   12.5618 O.3         1 CBI      -0.3841
      8 O3         -0.1034   35.2725   13.2339 O.3         1 CBI      -0.3864
      9 O4         -0.8209   34.6726   15.9538 O.3         1 CBI      -0.3865
     10 O5          0.5127   38.1386   16.2324 O.3         1 CBI      -0.3405
     11 O6          1.5719   36.9251   18.3597 O.3         1 CBI      -0.3924
     12 C1'         2.3715   42.9811   12.2823 C.3         1 CBI       0.1854
     13 C2'         0.8627   42.9984   12.6510 C.3         1 CBI       0.1339
     14 C3'         0.5684   42.0451   13.8482 C.3         1 CBI       0.1144
     15 C4'         1.1867   40.6277   13.6158 C.3         1 CBI       0.1184
     16 C5'         2.6914   40.7568   13.2040 C.3         1 CBI       0.1134
     17 C6'         3.3259   39.3878   12.8364 C.3         1 CBI       0.0730
     18 O1'         2.5828   43.7044   11.0688 O.3         1 CBI      -0.3649
     19 O2'         0.4565   44.3356   12.9748 O.3         1 CBI      -0.3841
     20 O3'        -0.8523   41.9608   14.0155 O.3         1 CBI      -0.3864
     21 O4'         1.1212   39.8073   14.8156 O.3         1 CBI      -0.3401
     22 O5'         2.8220   41.6293   12.0599 O.3         1 CBI      -0.3407
     23 O6'         4.4581   39.5559   11.9802 O.3         1 CBI      -0.3924
     24 H1         -0.8252   39.0655   14.9260 H           1 CBI       0.0938
     25 H2          1.4712   37.3763   13.7302 H           1 CBI       0.0671
     26 H3         -1.4442   36.5086   14.1322 H           1 CBI       0.0648
     27 H4          1.0289   35.4974   15.6263 H           1 CBI       0.0647
     28 H5         -1.2914   37.2126   16.6757 H           1 CBI       0.0647
     29 H6          0.0883   35.4984   18.2404 H           1 CBI       0.0584
     30 H7         -0.4222   37.0918   18.7934 H           1 CBI       0.0584
     31 H8          0.2623   37.4425   11.8850 H           1 CBI       0.2101
     32 H9          0.7523   34.8757   13.5007 H           1 CBI       0.2100
     33 H10        -1.7494   34.9967   15.9448 H           1 CBI       0.2100
     34 H11         2.1154   36.1849   18.0133 H           1 CBI       0.2095
     35 H12         2.9645   43.4597   13.0729 H           1 CBI       0.0935
     36 H13         0.2901   42.6615   11.7775 H           1 CBI       0.0671
     37 H14         0.9994   42.4769   14.7603 H           1 CBI       0.0648
     38 H15         0.6444   40.1791   12.7774 H           1 CBI       0.0651
     39 H16         3.2607   41.1673   14.0483 H           1 CBI       0.0647
     40 H17         2.5955   38.7502   12.3140 H           1 CBI       0.0584
     41 H18         3.6536   38.8749   13.7519 H           1 CBI       0.0584
     42 H19         3.5430   43.6032   10.8870 H           1 CBI       0.2126
     43 H20         0.5965   44.8531   12.1475 H           1 CBI       0.2101
     44 H21        -0.9729   41.5930   14.9132 H           1 CBI       0.2100
     45 H22         4.7077   38.6369   11.7487 H           1 CBI       0.2095
@<TRIPOS>BOND
     1     1    21   1
     2     1    10   1
     3     1     2   1
     4     2     7   1
     5     2     3   1
     6     3     8   1
     7     3     4   1
     8     4     9   1
     9     4     5   1
    10     5    10   1
    11     5     6   1
    12     6    11   1
    13    21    15   1
    14    15    16   1
    15    15    14   1
    16    14    20   1
    17    14    13   1
    18    13    19   1
    19    13    12   1
    20    12    22   1
    21    12    18   1
    22    22    16   1
    23    16    17   1
    24    17    23   1
    25     1    24   1
    26     2    25   1
    27     3    26   1
    28     4    27   1
    29     5    28   1
    30     6    29   1
    31     6    30   1
    32     7    31   1
    33     8    32   1
    34     9    33   1
    35    11    34   1
    36    12    35   1
    37    13    36   1
    38    14    37   1
    39    15    38   1
    40    16    39   1
    41    17    40   1
    42    17    41   1
    43    18    42   1
    44    19    43   1
    45    20    44   1
    46    23    45   1
@<TRIPOS>SUBSTRUCTURE
     1  CBI      1

