@<TRIPOS>MOLECULE
1qi0_ligand_045
    45    46
SMALL
GAST_HUCK
****
This file was generated by PARSER (from files_GN.cpp)

@<TRIPOS>ATOM
      1 C1         -0.0161   41.3508   12.9269 C.3         1 CBI       0.1884
      2 C2         -1.0924   41.9582   13.8825 C.3         1 CBI       0.1341
      3 C3         -2.0071   42.9531   13.1158 C.3         1 CBI       0.1141
      4 C4         -1.1744   44.0327   12.3868 C.3         1 CBI       0.1119
      5 C5         -0.0323   43.3795   11.5404 C.3         1 CBI       0.1130
      6 C6          0.9430   44.4503   10.9919 C.3         1 CBI       0.0730
      7 O2         -1.9525   40.9558   14.4524 O.3         1 CBI      -0.3841
      8 O3         -2.8876   43.5851   14.0263 O.3         1 CBI      -0.3864
      9 O4         -2.0207   44.8283   11.5607 O.3         1 CBI      -0.3865
     10 O5          0.7295   42.4500   12.3402 O.3         1 CBI      -0.3405
     11 O6          2.0538   43.8443   10.3292 O.3         1 CBI      -0.3924
     12 C1'         1.2226   36.5095   14.9746 C.3         1 CBI       0.1854
     13 C2'        -0.1336   36.8891   14.3562 C.3         1 CBI       0.1339
     14 C3'        -0.0057   38.1984   13.5138 C.3         1 CBI       0.1144
     15 C4'         0.6865   39.3439   14.3212 C.3         1 CBI       0.1184
     16 C5'         2.0250   38.7915   14.9445 C.3         1 CBI       0.1134
     17 C6'         2.7707   39.8583   15.8160 C.3         1 CBI       0.0730
     18 O1'         1.0662   35.4117   15.8635 O.3         1 CBI      -0.3649
     19 O2'        -0.6375   35.8262   13.5458 O.3         1 CBI      -0.3841
     20 O3'        -1.3060   38.5655   13.0866 O.3         1 CBI      -0.3864
     21 O4'         0.9999   40.5309   13.5503 O.3         1 CBI      -0.3401
     22 O5'         1.7517   37.6154   15.7374 O.3         1 CBI      -0.3407
     23 O6'         3.0336   39.4285   17.1617 O.3         1 CBI      -0.3924
     24 H1         -0.4958   40.8036   12.1265 H           1 CBI       0.0938
     25 H2         -0.5944   42.5009   14.6976 H           1 CBI       0.0671
     26 H3         -2.5973   42.3882   12.3772 H           1 CBI       0.0648
     27 H4         -0.7260   44.6856   13.1344 H           1 CBI       0.0647
     28 H5         -0.4751   42.8515   10.6784 H           1 CBI       0.0647
     29 H6          1.3199   45.0642   11.8099 H           1 CBI       0.0584
     30 H7          0.4360   45.0986   10.2755 H           1 CBI       0.0584
     31 H8         -1.5720   40.7944   15.3307 H           1 CBI       0.2101
     32 H9         -2.3104   44.0484   14.6571 H           1 CBI       0.2100
     33 H10        -2.9459   44.6161   11.8414 H           1 CBI       0.2100
     34 H11         2.5482   43.3844   11.0327 H           1 CBI       0.2095
     35 H12         1.9225   36.2255   14.1899 H           1 CBI       0.0935
     36 H13        -0.8580   37.0587   15.1706 H           1 CBI       0.0671
     37 H14         0.5917   37.9887   12.6270 H           1 CBI       0.0648
     38 H15         0.0571   39.6056   15.1622 H           1 CBI       0.0651
     39 H16         2.7149   38.5256   14.1397 H           1 CBI       0.0647
     40 H17         2.1825   40.7824   15.8965 H           1 CBI       0.0584
     41 H18         3.7227   40.1288   15.3458 H           1 CBI       0.0584
     42 H19         1.3704   34.6223   15.3474 H           1 CBI       0.2126
     43 H20        -1.5638   36.0801   13.3325 H           1 CBI       0.2101
     44 H21        -1.7786   38.8629   13.9062 H           1 CBI       0.2100
     45 H22         3.3764   38.5132   17.0718 H           1 CBI       0.2095
@<TRIPOS>BOND
     1     1    21   1
     2     1    10   1
     3     1     2   1
     4     2     7   1
     5     2     3   1
     6     3     8   1
     7     3     4   1
     8     4     9   1
     9     4     5   1
    10     5    10   1
    11     5     6   1
    12     6    11   1
    13    21    15   1
    14    15    16   1
    15    15    14   1
    16    14    20   1
    17    14    13   1
    18    13    19   1
    19    13    12   1
    20    12    22   1
    21    12    18   1
    22    22    16   1
    23    16    17   1
    24    17    23   1
    25     1    24   1
    26     2    25   1
    27     3    26   1
    28     4    27   1
    29     5    28   1
    30     6    29   1
    31     6    30   1
    32     7    31   1
    33     8    32   1
    34     9    33   1
    35    11    34   1
    36    12    35   1
    37    13    36   1
    38    14    37   1
    39    15    38   1
    40    16    39   1
    41    17    40   1
    42    17    41   1
    43    18    42   1
    44    19    43   1
    45    20    44   1
    46    23    45   1
@<TRIPOS>SUBSTRUCTURE
     1  CBI      1

