@<TRIPOS>MOLECULE
1qi0_ligand_003
    45    46
SMALL
GAST_HUCK
****
This file was generated by PARSER (from files_GN.cpp)

@<TRIPOS>ATOM
      1 C1         -1.1349   42.0949   12.1462 C.3         1 CBI       0.1884
      2 C2         -0.5076   42.5529   13.4912 C.3         1 CBI       0.1341
      3 C3          0.1485   43.9520   13.3468 C.3         1 CBI       0.1141
      4 C4          1.0979   44.0232   12.1215 C.3         1 CBI       0.1119
      5 C5          0.4231   43.4435   10.8429 C.3         1 CBI       0.1130
      6 C6          1.4139   43.2870    9.6636 C.3         1 CBI       0.0730
      7 O2         -1.4957   42.6052   14.5178 O.3         1 CBI      -0.3841
      8 O3          0.8882   44.2668   14.5284 O.3         1 CBI      -0.3864
      9 O4          1.5006   45.3762   11.8981 O.3         1 CBI      -0.3865
     10 O5         -0.1421   42.1413   11.1010 O.3         1 CBI      -0.3405
     11 O6          2.4951   42.4101    9.9727 O.3         1 CBI      -0.3924
     12 C1'        -5.0728   38.4131   12.5155 C.3         1 CBI       0.1854
     13 C2'        -5.2340   39.7722   11.7869 C.3         1 CBI       0.1339
     14 C3'        -3.8411   40.3494   11.4043 C.3         1 CBI       0.1144
     15 C4'        -2.8811   40.3775   12.6267 C.3         1 CBI       0.1184
     16 C5'        -2.8384   38.9691   13.2983 C.3         1 CBI       0.1134
     17 C6'        -1.9926   38.9515   14.5965 C.3         1 CBI       0.0730
     18 O1'        -6.3296   37.9552   13.0065 O.3         1 CBI      -0.3649
     19 O2'        -6.0452   39.5882   10.6275 O.3         1 CBI      -0.3841
     20 O3'        -3.9921   41.6681   10.8793 O.3         1 CBI      -0.3864
     21 O4'        -1.5420   40.7124   12.1956 O.3         1 CBI      -0.3401
     22 O5'        -4.1699   38.5185   13.6347 O.3         1 CBI      -0.3407
     23 O6'        -2.6195   39.7179   15.6208 O.3         1 CBI      -0.3924
     24 H1         -1.9722   42.7450   11.8717 H           1 CBI       0.0938
     25 H2          0.2553   41.8270   13.7801 H           1 CBI       0.0671
     26 H3         -0.6383   44.7051   13.2324 H           1 CBI       0.0648
     27 H4          1.9929   43.4432   12.3542 H           1 CBI       0.0647
     28 H5         -0.3737   44.1221   10.5212 H           1 CBI       0.0647
     29 H6          1.8307   44.2600    9.3873 H           1 CBI       0.0584
     30 H7          0.8863   42.8822    8.7945 H           1 CBI       0.0584
     31 H8         -1.0053   42.4849   15.3613 H           1 CBI       0.2101
     32 H9          0.3909   43.8984   15.2898 H           1 CBI       0.2100
     33 H10         0.6901   45.8613   11.6255 H           1 CBI       0.2100
     34 H11         2.0829   41.5270   10.0803 H           1 CBI       0.2095
     35 H12        -4.7021   37.6574   11.8170 H           1 CBI       0.0935
     36 H13        -5.7419   40.4712   12.4557 H           1 CBI       0.0671
     37 H14        -3.3982   39.7270   10.6218 H           1 CBI       0.0648
     38 H15        -3.2691   41.0952   13.3580 H           1 CBI       0.0651
     39 H16        -2.3858   38.2536   12.6029 H           1 CBI       0.0647
     40 H17        -0.9996   39.3589   14.4021 H           1 CBI       0.0584
     41 H18        -1.8788   37.9252   14.9524 H           1 CBI       0.0584
     42 H19        -6.4762   38.4475   13.8446 H           1 CBI       0.2126
     43 H20        -6.3424   40.4870   10.3683 H           1 CBI       0.2101
     44 H21        -4.3332   41.5523    9.9600 H           1 CBI       0.2100
     45 H22        -1.8959   40.2457   16.0289 H           1 CBI       0.2095
@<TRIPOS>BOND
     1     1    21   1
     2     1    10   1
     3     1     2   1
     4     2     7   1
     5     2     3   1
     6     3     8   1
     7     3     4   1
     8     4     9   1
     9     4     5   1
    10     5    10   1
    11     5     6   1
    12     6    11   1
    13    21    15   1
    14    15    16   1
    15    15    14   1
    16    14    20   1
    17    14    13   1
    18    13    19   1
    19    13    12   1
    20    12    22   1
    21    12    18   1
    22    22    16   1
    23    16    17   1
    24    17    23   1
    25     1    24   1
    26     2    25   1
    27     3    26   1
    28     4    27   1
    29     5    28   1
    30     6    29   1
    31     6    30   1
    32     7    31   1
    33     8    32   1
    34     9    33   1
    35    11    34   1
    36    12    35   1
    37    13    36   1
    38    14    37   1
    39    15    38   1
    40    16    39   1
    41    17    40   1
    42    17    41   1
    43    18    42   1
    44    19    43   1
    45    20    44   1
    46    23    45   1
@<TRIPOS>SUBSTRUCTURE
     1  CBI      1

