@<TRIPOS>MOLECULE
1qi0_ligand_023
    45    46
SMALL
GAST_HUCK
****
This file was generated by PARSER (from files_GN.cpp)

@<TRIPOS>ATOM
      1 C1         -1.5740   43.2873   12.4142 C.3         1 CBI       0.1884
      2 C2         -0.7853   42.8384   13.6706 C.3         1 CBI       0.1341
      3 C3          0.5959   43.5628   13.6757 C.3         1 CBI       0.1141
      4 C4          1.3679   43.3052   12.3483 C.3         1 CBI       0.1119
      5 C5          0.4707   43.6270   11.1119 C.3         1 CBI       0.1130
      6 C6          1.1331   43.2075    9.7677 C.3         1 CBI       0.0730
      7 O2         -1.5353   43.1111   14.8539 O.3         1 CBI      -0.3841
      8 O3          1.4037   43.1538   14.7686 O.3         1 CBI      -0.3864
      9 O4          2.5799   44.0650   12.3128 O.3         1 CBI      -0.3865
     10 O5         -0.7926   42.9478   11.2413 O.3         1 CBI      -0.3405
     11 O6          0.1855   42.7062    8.8281 O.3         1 CBI      -0.3924
     12 C1'        -5.6149   42.8549    9.0810 C.3         1 CBI       0.1854
     13 C2'        -4.5792   44.0083    9.1023 C.3         1 CBI       0.1339
     14 C3'        -3.3955   43.6484   10.0393 C.3         1 CBI       0.1144
     15 C4'        -3.8705   43.1564   11.4529 C.3         1 CBI       0.1184
     16 C5'        -4.9922   42.0743   11.2890 C.3         1 CBI       0.1134
     17 C6'        -5.6674   41.6585   12.6263 C.3         1 CBI       0.0730
     18 O1'        -6.7660   43.2326    8.3378 O.3         1 CBI      -0.3649
     19 O2'        -4.1079   44.2544    7.7736 O.3         1 CBI      -0.3841
     20 O3'        -2.5934   44.8196   10.1576 O.3         1 CBI      -0.3864
     21 O4'        -2.8227   42.5808   12.2817 O.3         1 CBI      -0.3401
     22 O5'        -6.0376   42.5386   10.4176 O.3         1 CBI      -0.3407
     23 O6'        -4.8291   40.8331   13.4373 O.3         1 CBI      -0.3924
     24 H1         -1.7549   44.3641   12.4965 H           1 CBI       0.0938
     25 H2         -0.6319   41.7538   13.6169 H           1 CBI       0.0671
     26 H3          0.4449   44.6391   13.7893 H           1 CBI       0.0648
     27 H4          1.6420   42.2438   12.3118 H           1 CBI       0.0647
     28 H5          0.2845   44.7071   11.0756 H           1 CBI       0.0647
     29 H6          1.8928   42.4230    9.9188 H           1 CBI       0.0584
     30 H7          1.6378   44.0587    9.3091 H           1 CBI       0.0584
     31 H8         -0.9334   42.8906   15.5983 H           1 CBI       0.2101
     32 H9          0.9334   42.3753   15.1737 H           1 CBI       0.2100
     33 H10         2.3105   44.9984   12.4052 H           1 CBI       0.2100
     34 H11        -0.1478   41.8638    9.2339 H           1 CBI       0.2095
     35 H12        -5.1801   41.9763    8.5945 H           1 CBI       0.0935
     36 H13        -5.0671   44.9147    9.4675 H           1 CBI       0.0671
     37 H14        -2.8088   42.8554    9.5748 H           1 CBI       0.0648
     38 H15        -4.2899   44.0136   11.9832 H           1 CBI       0.0651
     39 H16        -4.5538   41.1686   10.8629 H           1 CBI       0.0647
     40 H17        -6.5817   41.0980   12.4227 H           1 CBI       0.0584
     41 H18        -5.9402   42.5493   13.2112 H           1 CBI       0.0584
     42 H19        -7.2860   43.8035    8.9471 H           1 CBI       0.2126
     43 H20        -3.4527   44.9877    7.8575 H           1 CBI       0.2101
     44 H21        -1.9870   44.8140    9.3863 H           1 CBI       0.2100
     45 H22        -4.6333   40.0471   12.8780 H           1 CBI       0.2095
@<TRIPOS>BOND
     1     1    21   1
     2     1    10   1
     3     1     2   1
     4     2     7   1
     5     2     3   1
     6     3     8   1
     7     3     4   1
     8     4     9   1
     9     4     5   1
    10     5    10   1
    11     5     6   1
    12     6    11   1
    13    21    15   1
    14    15    16   1
    15    15    14   1
    16    14    20   1
    17    14    13   1
    18    13    19   1
    19    13    12   1
    20    12    22   1
    21    12    18   1
    22    22    16   1
    23    16    17   1
    24    17    23   1
    25     1    24   1
    26     2    25   1
    27     3    26   1
    28     4    27   1
    29     5    28   1
    30     6    29   1
    31     6    30   1
    32     7    31   1
    33     8    32   1
    34     9    33   1
    35    11    34   1
    36    12    35   1
    37    13    36   1
    38    14    37   1
    39    15    38   1
    40    16    39   1
    41    17    40   1
    42    17    41   1
    43    18    42   1
    44    19    43   1
    45    20    44   1
    46    23    45   1
@<TRIPOS>SUBSTRUCTURE
     1  CBI      1

