@<TRIPOS>MOLECULE
1qi0_ligand_016
    45    46
SMALL
GAST_HUCK
****
This file was generated by PARSER (from files_GN.cpp)

@<TRIPOS>ATOM
      1 C1          0.4979   41.7231   12.1867 C.3         1 CBI       0.1884
      2 C2         -0.1919   41.9449   13.5574 C.3         1 CBI       0.1341
      3 C3         -1.0420   43.2433   13.5470 C.3         1 CBI       0.1141
      4 C4         -0.1714   44.4533   13.1041 C.3         1 CBI       0.1119
      5 C5          0.5694   44.1374   11.7661 C.3         1 CBI       0.1130
      6 C6          1.5983   45.2345   11.3878 C.3         1 CBI       0.0730
      7 O2         -1.0019   40.8091   13.8889 O.3         1 CBI      -0.3841
      8 O3         -1.5831   43.4268   14.8595 O.3         1 CBI      -0.3864
      9 O4         -1.0191   45.5930   12.9719 O.3         1 CBI      -0.3865
     10 O5          1.2882   42.8780   11.8284 O.3         1 CBI      -0.3405
     11 O6          2.0861   45.0492   10.0598 O.3         1 CBI      -0.3924
     12 C1'         4.7922   38.7128   13.7754 C.3         1 CBI       0.1854
     13 C2'         3.9422   39.5713   14.7564 C.3         1 CBI       0.1339
     14 C3'         2.5034   39.7709   14.2027 C.3         1 CBI       0.1144
     15 C4'         2.5570   40.3716   12.7604 C.3         1 CBI       0.1184
     16 C5'         3.4228   39.4050   11.8788 C.3         1 CBI       0.1134
     17 C6'         3.5792   39.8820   10.4140 C.3         1 CBI       0.0730
     18 O1'         6.1552   38.7120   14.1753 O.3         1 CBI      -0.3649
     19 O2'         3.9226   38.9438   16.0438 O.3         1 CBI      -0.3841
     20 O3'         1.7969   40.5947   15.1293 O.3         1 CBI      -0.3864
     21 O4'         1.2481   40.4824   12.1536 O.3         1 CBI      -0.3401
     22 O5'         4.7441   39.2573   12.4408 O.3         1 CBI      -0.3407
     23 O6'         4.4868   39.0293    9.7132 O.3         1 CBI      -0.3924
     24 H1         -0.2738   41.5909   11.4239 H           1 CBI       0.0938
     25 H2          0.5717   42.0783   14.3222 H           1 CBI       0.0671
     26 H3         -1.8862   43.1163   12.8501 H           1 CBI       0.0648
     27 H4          0.5631   44.6653   13.8892 H           1 CBI       0.0647
     28 H5         -0.1753   44.0864   10.9639 H           1 CBI       0.0647
     29 H6          2.4473   45.2189   12.0780 H           1 CBI       0.0584
     30 H7          1.1406   46.2253   11.4330 H           1 CBI       0.0584
     31 H8         -0.9641   40.7596   14.8772 H           1 CBI       0.2101
     32 H9         -0.8148   43.5714   15.4570 H           1 CBI       0.2100
     33 H10        -0.4228   46.3656   13.0682 H           1 CBI       0.2100
     34 H11         2.7218   44.3055   10.1183 H           1 CBI       0.2095
     35 H12         4.4199   37.6828   13.7833 H           1 CBI       0.0935
     36 H13         4.4185   40.5553   14.8618 H           1 CBI       0.0671
     37 H14         1.9889   38.7996   14.1647 H           1 CBI       0.0648
     38 H15         3.0762   41.3379   12.7937 H           1 CBI       0.0651
     39 H16         2.9387   38.4210   11.8441 H           1 CBI       0.0647
     40 H17         3.9633   40.9034   10.3747 H           1 CBI       0.0584
     41 H18         2.6138   39.8473    9.9008 H           1 CBI       0.0584
     42 H19         6.1685   38.3077   15.0680 H           1 CBI       0.2126
     43 H20         3.1334   38.3569   16.0306 H           1 CBI       0.2101
     44 H21         2.4213   41.3172   15.3379 H           1 CBI       0.2100
     45 H22         4.5478   38.2231   10.2702 H           1 CBI       0.2095
@<TRIPOS>BOND
     1     1    21   1
     2     1    10   1
     3     1     2   1
     4     2     7   1
     5     2     3   1
     6     3     8   1
     7     3     4   1
     8     4     9   1
     9     4     5   1
    10     5    10   1
    11     5     6   1
    12     6    11   1
    13    21    15   1
    14    15    16   1
    15    15    14   1
    16    14    20   1
    17    14    13   1
    18    13    19   1
    19    13    12   1
    20    12    22   1
    21    12    18   1
    22    22    16   1
    23    16    17   1
    24    17    23   1
    25     1    24   1
    26     2    25   1
    27     3    26   1
    28     4    27   1
    29     5    28   1
    30     6    29   1
    31     6    30   1
    32     7    31   1
    33     8    32   1
    34     9    33   1
    35    11    34   1
    36    12    35   1
    37    13    36   1
    38    14    37   1
    39    15    38   1
    40    16    39   1
    41    17    40   1
    42    17    41   1
    43    18    42   1
    44    19    43   1
    45    20    44   1
    46    23    45   1
@<TRIPOS>SUBSTRUCTURE
     1  CBI      1

