@<TRIPOS>MOLECULE
1qi0_ligand_031
    45    46
SMALL
GAST_HUCK
****
This file was generated by PARSER (from files_GN.cpp)

@<TRIPOS>ATOM
      1 C1          1.7436   41.2869   11.5157 C.3         1 CBI       0.1884
      2 C2          1.0446   40.9771   12.8687 C.3         1 CBI       0.1341
      3 C3          1.7178   39.7487   13.5439 C.3         1 CBI       0.1141
      4 C4          1.7464   38.5273   12.5850 C.3         1 CBI       0.1119
      5 C5          2.3870   38.9294   11.2208 C.3         1 CBI       0.1130
      6 C6          2.2844   37.8288   10.1350 C.3         1 CBI       0.0730
      7 O2          1.1082   42.1040   13.7397 O.3         1 CBI      -0.3841
      8 O3          1.0442   39.4067   14.7569 O.3         1 CBI      -0.3864
      9 O4          2.4702   37.4626   13.2067 O.3         1 CBI      -0.3865
     10 O5          1.7579   40.1126   10.6816 O.3         1 CBI      -0.3405
     11 O6          1.1145   37.9574    9.3349 O.3         1 CBI      -0.3924
     12 C1'         3.2853   45.8027   10.0352 C.3         1 CBI       0.1854
     13 C2'         1.7846   45.9743   10.3839 C.3         1 CBI       0.1339
     14 C3'         1.2551   44.6774   11.0681 C.3         1 CBI       0.1144
     15 C4'         1.5379   43.4371   10.1684 C.3         1 CBI       0.1184
     16 C5'         3.0425   43.4023    9.7171 C.3         1 CBI       0.1134
     17 C6'         3.3348   42.3251    8.6412 C.3         1 CBI       0.0730
     18 O1'         3.8190   46.9564    9.3770 O.3         1 CBI      -0.3649
     19 O2'         1.6041   47.1103   11.2237 O.3         1 CBI      -0.3841
     20 O3'        -0.1497   44.7807   11.3171 O.3         1 CBI      -0.3864
     21 O4'         0.9812   42.2344   10.7465 O.3         1 CBI      -0.3401
     22 O5'         3.4318   44.6749    9.1482 O.3         1 CBI      -0.3407
     23 O6'         4.6062   42.5492    8.0350 O.3         1 CBI      -0.3924
     24 H1          2.7646   41.6229   11.7075 H           1 CBI       0.0938
     25 H2         -0.0080   40.7489   12.6812 H           1 CBI       0.0671
     26 H3          2.7478   40.0109   13.8135 H           1 CBI       0.0648
     27 H4          0.7214   38.1849   12.4221 H           1 CBI       0.0647
     28 H5          3.4487   39.1395   11.3847 H           1 CBI       0.0647
     29 H6          2.2835   36.8344   10.5793 H           1 CBI       0.0584
     30 H7          3.1498   37.8990    9.4745 H           1 CBI       0.0584
     31 H8          0.6138   41.8384   14.5457 H           1 CBI       0.2101
     32 H9          0.1042   39.2801   14.5042 H           1 CBI       0.2100
     33 H10         2.1655   36.6442   12.7599 H           1 CBI       0.2100
     34 H11         0.3597   37.8118    9.9424 H           1 CBI       0.2095
     35 H12         3.8640   45.6423   10.9522 H           1 CBI       0.0935
     36 H13         1.2193   46.1474    9.4600 H           1 CBI       0.0671
     37 H14         1.7565   44.5485   12.0334 H           1 CBI       0.0648
     38 H15         0.9456   43.5844    9.2589 H           1 CBI       0.0651
     39 H16         3.6882   43.2027   10.5783 H           1 CBI       0.0647
     40 H17         2.5665   42.3453    7.8638 H           1 CBI       0.0584
     41 H18         3.3484   41.3320    9.0941 H           1 CBI       0.0584
     42 H19         4.6081   47.2168    9.9054 H           1 CBI       0.2126
     43 H20         1.6501   47.8777   10.6140 H           1 CBI       0.2101
     44 H21        -0.2836   44.3919   12.2062 H           1 CBI       0.2100
     45 H22         4.5796   43.4651    7.6724 H           1 CBI       0.2095
@<TRIPOS>BOND
     1     1    21   1
     2     1    10   1
     3     1     2   1
     4     2     7   1
     5     2     3   1
     6     3     8   1
     7     3     4   1
     8     4     9   1
     9     4     5   1
    10     5    10   1
    11     5     6   1
    12     6    11   1
    13    21    15   1
    14    15    16   1
    15    15    14   1
    16    14    20   1
    17    14    13   1
    18    13    19   1
    19    13    12   1
    20    12    22   1
    21    12    18   1
    22    22    16   1
    23    16    17   1
    24    17    23   1
    25     1    24   1
    26     2    25   1
    27     3    26   1
    28     4    27   1
    29     5    28   1
    30     6    29   1
    31     6    30   1
    32     7    31   1
    33     8    32   1
    34     9    33   1
    35    11    34   1
    36    12    35   1
    37    13    36   1
    38    14    37   1
    39    15    38   1
    40    16    39   1
    41    17    40   1
    42    17    41   1
    43    18    42   1
    44    19    43   1
    45    20    44   1
    46    23    45   1
@<TRIPOS>SUBSTRUCTURE
     1  CBI      1

