@<TRIPOS>MOLECULE
1qi0_ligand_027
    45    46
SMALL
GAST_HUCK
****
This file was generated by PARSER (from files_GN.cpp)

@<TRIPOS>ATOM
      1 C1         -0.2054   38.8526   15.1144 C.3         1 CBI       0.1884
      2 C2         -0.9153   37.5171   15.4740 C.3         1 CBI       0.1341
      3 C3         -0.5658   37.1264   16.9385 C.3         1 CBI       0.1141
      4 C4          0.9736   37.0995   17.1650 C.3         1 CBI       0.1119
      5 C5          1.6406   38.4151   16.6557 C.3         1 CBI       0.1130
      6 C6          3.1908   38.3250   16.6579 C.3         1 CBI       0.0730
      7 O2         -2.3270   37.6419   15.3248 O.3         1 CBI      -0.3841
      8 O3         -1.1314   35.8530   17.2511 O.3         1 CBI      -0.3864
      9 O4          1.2467   36.9130   18.5577 O.3         1 CBI      -0.3865
     10 O5          1.2197   38.7185   15.3051 O.3         1 CBI      -0.3405
     11 O6          3.8023   39.5362   17.0983 O.3         1 CBI      -0.3924
     12 C1'         1.9641   42.4560   12.4459 C.3         1 CBI       0.1854
     13 C2'         0.6962   42.8721   13.2394 C.3         1 CBI       0.1339
     14 C3'         0.1433   41.6557   14.0410 C.3         1 CBI       0.1144
     15 C4'        -0.0373   40.4048   13.1190 C.3         1 CBI       0.1184
     16 C5'         1.2706   40.1227   12.3079 C.3         1 CBI       0.1134
     17 C6'         1.1001   39.0161   11.2337 C.3         1 CBI       0.0730
     18 O1'         2.3664   43.5165   11.5843 O.3         1 CBI      -0.3649
     19 O2'         1.0222   43.9491   14.1228 O.3         1 CBI      -0.3841
     20 O3'        -1.0973   42.0242   14.6534 O.3         1 CBI      -0.3864
     21 O4'        -0.5434   39.2021   13.7562 O.3         1 CBI      -0.3401
     22 O5'         1.6917   41.3146   11.6083 O.3         1 CBI      -0.3407
     23 O6'         2.3431   38.7175   10.5973 O.3         1 CBI      -0.3924
     24 H1         -0.6030   39.6380   15.7682 H           1 CBI       0.0938
     25 H2         -0.5683   36.7282   14.7982 H           1 CBI       0.0671
     26 H3         -1.0125   37.8640   17.6183 H           1 CBI       0.0648
     27 H4          1.3897   36.2498   16.6136 H           1 CBI       0.0647
     28 H5          1.3546   39.2314   17.3202 H           1 CBI       0.0647
     29 H6          3.5535   38.1056   15.6491 H           1 CBI       0.0584
     30 H7          3.5352   37.5337   17.3279 H           1 CBI       0.0584
     31 H8         -2.4788   37.7446   14.3617 H           1 CBI       0.2101
     32 H9         -0.7126   35.2245   16.6238 H           1 CBI       0.2100
     33 H10         0.9180   36.0100   18.7645 H           1 CBI       0.2100
     34 H11         3.2123   40.2649   16.8063 H           1 CBI       0.2095
     35 H12         2.7941   42.2352   13.1249 H           1 CBI       0.0935
     36 H13        -0.0694   43.2214   12.5360 H           1 CBI       0.0671
     37 H14         0.8617   41.4177   14.8306 H           1 CBI       0.0648
     38 H15        -0.8073   40.6714   12.3878 H           1 CBI       0.0651
     39 H16         2.0671   39.8036   12.9888 H           1 CBI       0.0647
     40 H17         0.4049   39.3592   10.4626 H           1 CBI       0.0584
     41 H18         0.7079   38.0989   11.6757 H           1 CBI       0.0584
     42 H19         2.6328   44.2485   12.1770 H           1 CBI       0.2126
     43 H20         0.1732   44.2423   14.5190 H           1 CBI       0.2101
     44 H21        -0.8456   42.5488   15.4443 H           1 CBI       0.2100
     45 H22         2.8078   38.0773   11.1833 H           1 CBI       0.2095
@<TRIPOS>BOND
     1     1    21   1
     2     1    10   1
     3     1     2   1
     4     2     7   1
     5     2     3   1
     6     3     8   1
     7     3     4   1
     8     4     9   1
     9     4     5   1
    10     5    10   1
    11     5     6   1
    12     6    11   1
    13    21    15   1
    14    15    16   1
    15    15    14   1
    16    14    20   1
    17    14    13   1
    18    13    19   1
    19    13    12   1
    20    12    22   1
    21    12    18   1
    22    22    16   1
    23    16    17   1
    24    17    23   1
    25     1    24   1
    26     2    25   1
    27     3    26   1
    28     4    27   1
    29     5    28   1
    30     6    29   1
    31     6    30   1
    32     7    31   1
    33     8    32   1
    34     9    33   1
    35    11    34   1
    36    12    35   1
    37    13    36   1
    38    14    37   1
    39    15    38   1
    40    16    39   1
    41    17    40   1
    42    17    41   1
    43    18    42   1
    44    19    43   1
    45    20    44   1
    46    23    45   1
@<TRIPOS>SUBSTRUCTURE
     1  CBI      1

