@<TRIPOS>MOLECULE
1qi0_ligand_004
    45    46
SMALL
GAST_HUCK
****
This file was generated by PARSER (from files_GN.cpp)

@<TRIPOS>ATOM
      1 C1          1.3826   41.1084   13.9320 C.3         1 CBI       0.1884
      2 C2          2.5912   40.9734   12.9664 C.3         1 CBI       0.1341
      3 C3          3.2252   39.5652   13.0914 C.3         1 CBI       0.1141
      4 C4          3.5742   39.2299   14.5666 C.3         1 CBI       0.1119
      5 C5          2.3399   39.4766   15.4881 C.3         1 CBI       0.1130
      6 C6          2.6278   39.3102   17.0173 C.3         1 CBI       0.0730
      7 O2          2.1900   41.1897   11.6161 O.3         1 CBI      -0.3841
      8 O3          4.3905   39.5018   12.2686 O.3         1 CBI      -0.3864
      9 O4          3.9736   37.8606   14.6643 O.3         1 CBI      -0.3865
     10 O5          1.8089   40.8069   15.2708 O.3         1 CBI      -0.3405
     11 O6          3.9507   38.8561   17.3217 O.3         1 CBI      -0.3924
     12 C1'        -2.3247   44.5425   12.0524 C.3         1 CBI       0.1854
     13 C2'        -2.6421   43.1341   12.6160 C.3         1 CBI       0.1339
     14 C3'        -1.5543   42.7141   13.6380 C.3         1 CBI       0.1144
     15 C4'        -0.1434   42.8153   12.9933 C.3         1 CBI       0.1184
     16 C5'         0.0694   44.2693   12.4772 C.3         1 CBI       0.1134
     17 C6'         1.4276   44.4528   11.7482 C.3         1 CBI       0.0730
     18 O1'        -3.1865   44.8199   10.9509 O.3         1 CBI      -0.3649
     19 O2'        -3.9304   43.1436   13.2255 O.3         1 CBI      -0.3841
     20 O3'        -1.8094   41.3927   14.1024 O.3         1 CBI      -0.3864
     21 O4'         0.8869   42.4650   13.9498 O.3         1 CBI      -0.3401
     22 O5'        -0.9776   44.6225   11.5429 O.3         1 CBI      -0.3407
     23 O6'         1.6973   45.8258   11.4712 O.3         1 CBI      -0.3924
     24 H1          0.6032   40.3940   13.6534 H           1 CBI       0.0938
     25 H2          3.3362   41.7266   13.2304 H           1 CBI       0.0671
     26 H3          2.5062   38.8270   12.7234 H           1 CBI       0.0648
     27 H4          4.4028   39.8642   14.8936 H           1 CBI       0.0647
     28 H5          1.5701   38.7438   15.2136 H           1 CBI       0.0647
     29 H6          1.9176   38.5924   17.4416 H           1 CBI       0.0584
     30 H7          2.4828   40.2644   17.5384 H           1 CBI       0.0584
     31 H8          3.0218   41.2982   11.1064 H           1 CBI       0.2101
     32 H9          4.5018   38.5531   12.0574 H           1 CBI       0.2100
     33 H10         4.9429   37.8302   14.5192 H           1 CBI       0.2100
     34 H11         3.8581   38.2662   18.0991 H           1 CBI       0.2095
     35 H12        -2.4770   45.3098   12.8200 H           1 CBI       0.0935
     36 H13        -2.6555   42.4187   11.7837 H           1 CBI       0.0671
     37 H14        -1.5977   43.3746   14.5037 H           1 CBI       0.0648
     38 H15        -0.1250   42.1563   12.1196 H           1 CBI       0.0651
     39 H16         0.0561   44.9531   13.3334 H           1 CBI       0.0647
     40 H17         1.4266   43.8976   10.8078 H           1 CBI       0.0584
     41 H18         2.2504   44.0844   12.3628 H           1 CBI       0.0584
     42 H19        -4.0798   44.5339   11.2412 H           1 CBI       0.2126
     43 H20        -4.2125   42.2037   13.2285 H           1 CBI       0.2101
     44 H21        -1.2297   41.2922   14.8875 H           1 CBI       0.2100
     45 H22         0.8703   46.1814   11.0751 H           1 CBI       0.2095
@<TRIPOS>BOND
     1     1    21   1
     2     1    10   1
     3     1     2   1
     4     2     7   1
     5     2     3   1
     6     3     8   1
     7     3     4   1
     8     4     9   1
     9     4     5   1
    10     5    10   1
    11     5     6   1
    12     6    11   1
    13    21    15   1
    14    15    16   1
    15    15    14   1
    16    14    20   1
    17    14    13   1
    18    13    19   1
    19    13    12   1
    20    12    22   1
    21    12    18   1
    22    22    16   1
    23    16    17   1
    24    17    23   1
    25     1    24   1
    26     2    25   1
    27     3    26   1
    28     4    27   1
    29     5    28   1
    30     6    29   1
    31     6    30   1
    32     7    31   1
    33     8    32   1
    34     9    33   1
    35    11    34   1
    36    12    35   1
    37    13    36   1
    38    14    37   1
    39    15    38   1
    40    16    39   1
    41    17    40   1
    42    17    41   1
    43    18    42   1
    44    19    43   1
    45    20    44   1
    46    23    45   1
@<TRIPOS>SUBSTRUCTURE
     1  CBI      1

