@<TRIPOS>MOLECULE
1qi0_ligand_007
    45    46
SMALL
GAST_HUCK
****
This file was generated by PARSER (from files_GN.cpp)

@<TRIPOS>ATOM
      1 C1          0.2957   42.2111   11.0207 C.3         1 CBI       0.1884
      2 C2          1.2782   42.6643   12.1316 C.3         1 CBI       0.1341
      3 C3          0.5905   42.5921   13.5307 C.3         1 CBI       0.1141
      4 C4         -0.7612   43.3512   13.5293 C.3         1 CBI       0.1119
      5 C5         -1.6549   42.8802   12.3445 C.3         1 CBI       0.1130
      6 C6         -2.9581   43.7068   12.2038 C.3         1 CBI       0.0730
      7 O2          2.4476   41.8451   12.1165 O.3         1 CBI      -0.3841
      8 O3          1.4585   43.1421   14.5206 O.3         1 CBI      -0.3864
      9 O4         -1.4628   43.1183   14.7523 O.3         1 CBI      -0.3865
     10 O5         -0.9260   42.9569   11.0980 O.3         1 CBI      -0.3405
     11 O6         -2.7396   44.9279   11.5012 O.3         1 CBI      -0.3924
     12 C1'         2.6587   40.2622    6.5604 C.3         1 CBI       0.1854
     13 C2'         1.6778   39.4783    7.4691 C.3         1 CBI       0.1339
     14 C3'         0.7625   40.4558    8.2531 C.3         1 CBI       0.1144
     15 C4'         1.6155   41.5251    9.0089 C.3         1 CBI       0.1184
     16 C5'         2.5259   42.2537    7.9657 C.3         1 CBI       0.1134
     17 C6'         3.4601   43.3478    8.5546 C.3         1 CBI       0.0730
     18 O1'         3.6292   39.3650    6.0271 O.3         1 CBI      -0.3649
     19 O2'         0.8785   38.5837    6.6942 O.3         1 CBI      -0.3841
     20 O3'        -0.0650   39.6778    9.1120 O.3         1 CBI      -0.3864
     21 O4'         0.7921   42.4922    9.6911 O.3         1 CBI      -0.3401
     22 O5'         3.3685   41.2747    7.3046 O.3         1 CBI      -0.3407
     23 O6'         2.7886   44.5817    8.7619 O.3         1 CBI      -0.3924
     24 H1          0.0555   41.1614   11.1590 H           1 CBI       0.0938
     25 H2          1.5827   43.6973   11.9254 H           1 CBI       0.0671
     26 H3          0.4148   41.5433   13.7872 H           1 CBI       0.0648
     27 H4         -0.5768   44.4248   13.4439 H           1 CBI       0.0647
     28 H5         -1.9355   41.8393   12.5279 H           1 CBI       0.0647
     29 H6         -3.3890   43.9534   13.1754 H           1 CBI       0.0584
     30 H7         -3.6931   43.1158   11.6520 H           1 CBI       0.0584
     31 H8          3.1484   42.3408   12.5999 H           1 CBI       0.2101
     32 H9          0.9977   43.0182   15.3733 H           1 CBI       0.2100
     33 H10        -1.0255   43.6658   15.4381 H           1 CBI       0.2100
     34 H11        -3.4138   44.9468   10.7923 H           1 CBI       0.2095
     35 H12         2.1247   40.7252    5.7228 H           1 CBI       0.0935
     36 H13         2.2536   38.8845    8.1844 H           1 CBI       0.0671
     37 H14         0.1023   40.9679    7.5476 H           1 CBI       0.0648
     38 H15         2.2700   41.0129    9.7166 H           1 CBI       0.0651
     39 H16         1.8883   42.7408    7.2119 H           1 CBI       0.0647
     40 H17         4.2595   43.5505    7.8453 H           1 CBI       0.0584
     41 H18         3.9139   43.0195    9.4855 H           1 CBI       0.0584
     42 H19         4.2645   39.9274    5.5343 H           1 CBI       0.2126
     43 H20         1.5056   37.9225    6.3335 H           1 CBI       0.2101
     44 H21        -0.8398   40.2466    9.3039 H           1 CBI       0.2100
     45 H22         2.1000   44.4164    9.4338 H           1 CBI       0.2095
@<TRIPOS>BOND
     1     1    21   1
     2     1    10   1
     3     1     2   1
     4     2     7   1
     5     2     3   1
     6     3     8   1
     7     3     4   1
     8     4     9   1
     9     4     5   1
    10     5    10   1
    11     5     6   1
    12     6    11   1
    13    21    15   1
    14    15    16   1
    15    15    14   1
    16    14    20   1
    17    14    13   1
    18    13    19   1
    19    13    12   1
    20    12    22   1
    21    12    18   1
    22    22    16   1
    23    16    17   1
    24    17    23   1
    25     1    24   1
    26     2    25   1
    27     3    26   1
    28     4    27   1
    29     5    28   1
    30     6    29   1
    31     6    30   1
    32     7    31   1
    33     8    32   1
    34     9    33   1
    35    11    34   1
    36    12    35   1
    37    13    36   1
    38    14    37   1
    39    15    38   1
    40    16    39   1
    41    17    40   1
    42    17    41   1
    43    18    42   1
    44    19    43   1
    45    20    44   1
    46    23    45   1
@<TRIPOS>SUBSTRUCTURE
     1  CBI      1

