@<TRIPOS>MOLECULE
1qi0_ligand_022
    45    46
SMALL
GAST_HUCK
****
This file was generated by PARSER (from files_GN.cpp)

@<TRIPOS>ATOM
      1 C1          0.4412   41.9191   12.5338 C.3         1 CBI       0.1884
      2 C2          0.0530   43.1834   13.3531 C.3         1 CBI       0.1341
      3 C3         -0.0561   44.4199   12.4162 C.3         1 CBI       0.1141
      4 C4          1.2282   44.5900   11.5568 C.3         1 CBI       0.1119
      5 C5          1.5240   43.2737   10.7772 C.3         1 CBI       0.1130
      6 C6          2.8771   43.3076   10.0202 C.3         1 CBI       0.0730
      7 O2         -1.1793   42.9704   14.0518 O.3         1 CBI      -0.3841
      8 O3         -0.2974   45.5995   13.1837 O.3         1 CBI      -0.3864
      9 O4          1.0789   45.6987   10.6695 O.3         1 CBI      -0.3865
     10 O5          1.5919   42.1498   11.6909 O.3         1 CBI      -0.3405
     11 O6          2.8172   44.0956    8.8362 O.3         1 CBI      -0.3924
     12 C1'         3.3396   38.4414   15.6131 C.3         1 CBI       0.1854
     13 C2'         3.3503   39.9490   15.9630 C.3         1 CBI       0.1339
     14 C3'         2.0944   40.6514   15.3773 C.3         1 CBI       0.1144
     15 C4'         1.9116   40.3335   13.8684 C.3         1 CBI       0.1184
     16 C5'         2.0060   38.7951   13.6211 C.3         1 CBI       0.1134
     17 C6'         1.9817   38.4285   12.1156 C.3         1 CBI       0.0730
     18 O1'         4.5464   37.8266   16.0625 O.3         1 CBI      -0.3649
     19 O2'         3.3906   40.1088   17.3807 O.3         1 CBI      -0.3841
     20 O3'         2.2233   42.0627   15.5539 O.3         1 CBI      -0.3864
     21 O4'         0.6114   40.7753   13.4016 O.3         1 CBI      -0.3401
     22 O5'         3.2146   38.2409   14.1916 O.3         1 CBI      -0.3407
     23 O6'         3.0687   39.0254   11.4101 O.3         1 CBI      -0.3924
     24 H1         -0.4042   41.6687   11.8831 H           1 CBI       0.0938
     25 H2          0.8324   43.3789   14.0955 H           1 CBI       0.0671
     26 H3         -0.9159   44.2875   11.7512 H           1 CBI       0.0648
     27 H4          2.0681   44.8103   12.2277 H           1 CBI       0.0647
     28 H5          0.7294   43.0929   10.0484 H           1 CBI       0.0647
     29 H6          3.1605   42.2918    9.7343 H           1 CBI       0.0584
     30 H7          3.6595   43.7125   10.6665 H           1 CBI       0.0584
     31 H8         -1.2449   43.7193   14.6808 H           1 CBI       0.2101
     32 H9          0.2739   45.5125   13.9751 H           1 CBI       0.2100
     33 H10         0.3332   45.4615   10.0760 H           1 CBI       0.2100
     34 H11         2.4087   43.5130    8.1626 H           1 CBI       0.2095
     35 H12         2.5153   37.9480   16.1364 H           1 CBI       0.0935
     36 H13         4.2483   40.4100   15.5392 H           1 CBI       0.0671
     37 H14         1.2142   40.3147   15.9275 H           1 CBI       0.0648
     38 H15         2.7395   40.8073   13.3361 H           1 CBI       0.0651
     39 H16         1.1411   38.3071   14.0840 H           1 CBI       0.0647
     40 H17         1.0454   38.7618   11.6621 H           1 CBI       0.0584
     41 H18         2.0472   37.3435   12.0020 H           1 CBI       0.0584
     42 H19         5.0577   37.6080   15.2549 H           1 CBI       0.2126
     43 H20         2.4727   39.9408   17.6856 H           1 CBI       0.2101
     44 H21         2.6959   42.1850   16.4071 H           1 CBI       0.2100
     45 H22         2.9683   38.7200   10.4837 H           1 CBI       0.2095
@<TRIPOS>BOND
     1     1    21   1
     2     1    10   1
     3     1     2   1
     4     2     7   1
     5     2     3   1
     6     3     8   1
     7     3     4   1
     8     4     9   1
     9     4     5   1
    10     5    10   1
    11     5     6   1
    12     6    11   1
    13    21    15   1
    14    15    16   1
    15    15    14   1
    16    14    20   1
    17    14    13   1
    18    13    19   1
    19    13    12   1
    20    12    22   1
    21    12    18   1
    22    22    16   1
    23    16    17   1
    24    17    23   1
    25     1    24   1
    26     2    25   1
    27     3    26   1
    28     4    27   1
    29     5    28   1
    30     6    29   1
    31     6    30   1
    32     7    31   1
    33     8    32   1
    34     9    33   1
    35    11    34   1
    36    12    35   1
    37    13    36   1
    38    14    37   1
    39    15    38   1
    40    16    39   1
    41    17    40   1
    42    17    41   1
    43    18    42   1
    44    19    43   1
    45    20    44   1
    46    23    45   1
@<TRIPOS>SUBSTRUCTURE
     1  CBI      1

