@<TRIPOS>MOLECULE
1qi0_ligand_013
    45    46
SMALL
GAST_HUCK
****
This file was generated by PARSER (from files_GN.cpp)

@<TRIPOS>ATOM
      1 C1         -2.5330   42.0725    9.0779 C.3         1 CBI       0.1884
      2 C2         -3.4941   43.2196    9.5317 C.3         1 CBI       0.1341
      3 C3         -4.2683   43.8144    8.3210 C.3         1 CBI       0.1141
      4 C4         -3.3459   44.1168    7.1065 C.3         1 CBI       0.1119
      5 C5         -2.4748   42.8655    6.7646 C.3         1 CBI       0.1130
      6 C6         -1.5134   43.0931    5.5696 C.3         1 CBI       0.0730
      7 O2         -4.4119   42.6926   10.4856 O.3         1 CBI      -0.3841
      8 O3         -4.9097   45.0343    8.7108 O.3         1 CBI      -0.3864
      9 O4         -4.1446   44.4937    5.9807 O.3         1 CBI      -0.3865
     10 O5         -1.7280   42.4897    7.9406 O.3         1 CBI      -0.3405
     11 O6         -1.9146   42.3116    4.4373 O.3         1 CBI      -0.3924
     12 C1'         0.5896   42.6308   13.5353 C.3         1 CBI       0.1854
     13 C2'        -0.8768   43.1124   13.5103 C.3         1 CBI       0.1339
     14 C3'        -1.6617   42.3171   12.4235 C.3         1 CBI       0.1144
     15 C4'        -0.9734   42.4016   11.0403 C.3         1 CBI       0.1184
     16 C5'         0.5189   41.9325   11.2032 C.3         1 CBI       0.1134
     17 C6'         1.3427   42.0518    9.9009 C.3         1 CBI       0.0730
     18 O1'         1.3484   43.4529   14.4153 O.3         1 CBI      -0.3649
     19 O2'        -1.5108   42.9159   14.7715 O.3         1 CBI      -0.3841
     20 O3'        -3.0086   42.8278   12.3617 O.3         1 CBI      -0.3864
     21 O4'        -1.6969   41.5357   10.1320 O.3         1 CBI      -0.3401
     22 O5'         1.1798   42.7230   12.2234 O.3         1 CBI      -0.3407
     23 O6'         0.9946   41.0501    8.9459 O.3         1 CBI      -0.3924
     24 H1         -3.1466   41.2289    8.7592 H           1 CBI       0.0938
     25 H2         -2.9065   44.0190    9.9995 H           1 CBI       0.0671
     26 H3         -5.0387   43.1079    8.0007 H           1 CBI       0.0648
     27 H4         -2.6793   44.9525    7.3512 H           1 CBI       0.0647
     28 H5         -3.1627   42.0446    6.4979 H           1 CBI       0.0647
     29 H6         -0.4900   42.8004    5.8287 H           1 CBI       0.0584
     30 H7         -1.4918   44.1464    5.2539 H           1 CBI       0.0584
     31 H8         -4.7833   43.4739   10.9503 H           1 CBI       0.2101
     32 H9         -5.5487   44.7889    9.4098 H           1 CBI       0.2100
     33 H10        -4.6475   45.2897    6.2699 H           1 CBI       0.2100
     34 H11        -1.4541   42.7170    3.6687 H           1 CBI       0.2095
     35 H12         0.6526   41.5947   13.8998 H           1 CBI       0.0935
     36 H13        -0.9101   44.1779   13.2658 H           1 CBI       0.0671
     37 H14        -1.7274   41.2718   12.7345 H           1 CBI       0.0648
     38 H15        -0.9592   43.4477   10.7065 H           1 CBI       0.0651
     39 H16         0.5259   40.8769   11.5008 H           1 CBI       0.0647
     40 H17         2.4125   41.9291   10.1336 H           1 CBI       0.0584
     41 H18         1.2021   43.0418    9.4447 H           1 CBI       0.0584
     42 H19         0.9821   43.2780   15.3091 H           1 CBI       0.2126
     43 H20        -1.0413   43.5122   15.3959 H           1 CBI       0.2101
     44 H21        -3.5351   42.0778   12.0320 H           1 CBI       0.2100
     45 H22         1.2590   40.2018    9.3614 H           1 CBI       0.2095
@<TRIPOS>BOND
     1     1    21   1
     2     1    10   1
     3     1     2   1
     4     2     7   1
     5     2     3   1
     6     3     8   1
     7     3     4   1
     8     4     9   1
     9     4     5   1
    10     5    10   1
    11     5     6   1
    12     6    11   1
    13    21    15   1
    14    15    16   1
    15    15    14   1
    16    14    20   1
    17    14    13   1
    18    13    19   1
    19    13    12   1
    20    12    22   1
    21    12    18   1
    22    22    16   1
    23    16    17   1
    24    17    23   1
    25     1    24   1
    26     2    25   1
    27     3    26   1
    28     4    27   1
    29     5    28   1
    30     6    29   1
    31     6    30   1
    32     7    31   1
    33     8    32   1
    34     9    33   1
    35    11    34   1
    36    12    35   1
    37    13    36   1
    38    14    37   1
    39    15    38   1
    40    16    39   1
    41    17    40   1
    42    17    41   1
    43    18    42   1
    44    19    43   1
    45    20    44   1
    46    23    45   1
@<TRIPOS>SUBSTRUCTURE
     1  CBI      1

