@<TRIPOS>MOLECULE
1qi0_ligand_017
    45    46
SMALL
GAST_HUCK
****
This file was generated by PARSER (from files_GN.cpp)

@<TRIPOS>ATOM
      1 C1          1.8948   43.2924   11.3963 C.3         1 CBI       0.1884
      2 C2          2.3239   41.8886   10.8671 C.3         1 CBI       0.1341
      3 C3          3.6000   41.9871    9.9827 C.3         1 CBI       0.1141
      4 C4          3.4873   43.1307    8.9339 C.3         1 CBI       0.1119
      5 C5          3.1329   44.4636    9.6612 C.3         1 CBI       0.1130
      6 C6          3.0168   45.7029    8.7392 C.3         1 CBI       0.0730
      7 O2          2.5500   41.0079   11.9695 O.3         1 CBI      -0.3841
      8 O3          3.8241   40.7440    9.3141 O.3         1 CBI      -0.3864
      9 O4          4.7122   43.2021    8.2132 O.3         1 CBI      -0.3865
     10 O5          1.8719   44.2710   10.3389 O.3         1 CBI      -0.3405
     11 O6          4.1153   46.6072    8.8560 O.3         1 CBI      -0.3924
     12 C1'        -3.3641   42.1883   12.6544 C.3         1 CBI       0.1854
     13 C2'        -2.2590   41.2488   13.1977 C.3         1 CBI       0.1339
     14 C3'        -0.9230   42.0324   13.2817 C.3         1 CBI       0.1144
     15 C4'        -0.5441   42.6429   11.9032 C.3         1 CBI       0.1184
     16 C5'        -1.7371   43.5230   11.3922 C.3         1 CBI       0.1134
     17 C6'        -1.5726   44.0631    9.9479 C.3         1 CBI       0.0730
     18 O1'        -4.5682   41.4549   12.4475 O.3         1 CBI      -0.3649
     19 O2'        -2.6262   40.7487   14.4823 O.3         1 CBI      -0.3841
     20 O3'         0.1192   41.1741   13.7425 O.3         1 CBI      -0.3864
     21 O4'         0.6656   43.3945   12.1516 O.3         1 CBI      -0.3401
     22 O5'        -2.9696   42.7628   11.3946 O.3         1 CBI      -0.3407
     23 O6'        -1.5858   43.0303    8.9664 O.3         1 CBI      -0.3924
     24 H1          2.6588   43.6117   12.1159 H           1 CBI       0.0938
     25 H2          1.5373   41.4594   10.2446 H           1 CBI       0.0671
     26 H3          4.4692   42.1794   10.6182 H           1 CBI       0.0648
     27 H4          2.6926   42.8873    8.2234 H           1 CBI       0.0647
     28 H5          3.9038   44.6849   10.4093 H           1 CBI       0.0647
     29 H6          2.1139   46.2683    8.9812 H           1 CBI       0.0584
     30 H7          2.9430   45.4015    7.6950 H           1 CBI       0.0584
     31 H8          3.3831   41.3268   12.3913 H           1 CBI       0.2101
     32 H9          4.1317   40.1217   10.0088 H           1 CBI       0.2100
     33 H10         4.6252   43.9395    7.5768 H           1 CBI       0.2100
     34 H11         4.4493   46.5291    9.7783 H           1 CBI       0.2095
     35 H12        -3.5770   42.9815   13.3747 H           1 CBI       0.0935
     36 H13        -2.1393   40.4032   12.5139 H           1 CBI       0.0671
     37 H14        -1.0252   42.8401   14.0138 H           1 CBI       0.0648
     38 H15        -0.3935   41.8167   11.2112 H           1 CBI       0.0651
     39 H16        -1.8466   44.3843   12.0547 H           1 CBI       0.0647
     40 H17        -0.6513   44.6352    9.8479 H           1 CBI       0.0584
     41 H18        -2.4017   44.7385    9.7266 H           1 CBI       0.0584
     42 H19        -4.4179   40.9495   11.6207 H           1 CBI       0.2126
     43 H20        -2.3185   39.8172   14.5046 H           1 CBI       0.2101
     44 H21         0.0053   41.1400   14.7161 H           1 CBI       0.2100
     45 H22        -0.6862   42.6418    8.9834 H           1 CBI       0.2095
@<TRIPOS>BOND
     1     1    21   1
     2     1    10   1
     3     1     2   1
     4     2     7   1
     5     2     3   1
     6     3     8   1
     7     3     4   1
     8     4     9   1
     9     4     5   1
    10     5    10   1
    11     5     6   1
    12     6    11   1
    13    21    15   1
    14    15    16   1
    15    15    14   1
    16    14    20   1
    17    14    13   1
    18    13    19   1
    19    13    12   1
    20    12    22   1
    21    12    18   1
    22    22    16   1
    23    16    17   1
    24    17    23   1
    25     1    24   1
    26     2    25   1
    27     3    26   1
    28     4    27   1
    29     5    28   1
    30     6    29   1
    31     6    30   1
    32     7    31   1
    33     8    32   1
    34     9    33   1
    35    11    34   1
    36    12    35   1
    37    13    36   1
    38    14    37   1
    39    15    38   1
    40    16    39   1
    41    17    40   1
    42    17    41   1
    43    18    42   1
    44    19    43   1
    45    20    44   1
    46    23    45   1
@<TRIPOS>SUBSTRUCTURE
     1  CBI      1

