@<TRIPOS>MOLECULE
1qi0_ligand_001
    45    46
SMALL
GAST_HUCK
****
This file was generated by PARSER (from files_GN.cpp)

@<TRIPOS>ATOM
      1 C1          1.6712   39.8779   13.1522 C.3         1 CBI       0.1884
      2 C2          3.1100   39.6531   12.5980 C.3         1 CBI       0.1341
      3 C3          3.9426   38.7090   13.5104 C.3         1 CBI       0.1141
      4 C4          3.8461   39.0753   15.0137 C.3         1 CBI       0.1119
      5 C5          2.3505   39.1948   15.4289 C.3         1 CBI       0.1130
      6 C6          2.1361   39.6774   16.8816 C.3         1 CBI       0.0730
      7 O2          3.0484   39.1351   11.2716 O.3         1 CBI      -0.3841
      8 O3          5.3048   38.7978   13.0777 O.3         1 CBI      -0.3864
      9 O4          4.4717   38.0707   15.8081 O.3         1 CBI      -0.3865
     10 O5          1.6862   40.1637   14.5745 O.3         1 CBI      -0.3405
     11 O6          3.0145   39.0771   17.8342 O.3         1 CBI      -0.3924
     12 C1'         1.2072   44.9480   11.1317 C.3         1 CBI       0.1854
     13 C2'         2.2288   43.9393   10.5477 C.3         1 CBI       0.1339
     14 C3'         1.7487   42.4894   10.8119 C.3         1 CBI       0.1144
     15 C4'         1.4509   42.2560   12.3242 C.3         1 CBI       0.1184
     16 C5'         0.4230   43.3413   12.8097 C.3         1 CBI       0.1134
     17 C6'         0.1178   43.2848   14.3434 C.3         1 CBI       0.0730
     18 O1'         1.7564   46.2613   11.0466 O.3         1 CBI      -0.3649
     19 O2'         2.3942   44.1433    9.1388 O.3         1 CBI      -0.3841
     20 O3'         2.7400   41.5821   10.3399 O.3         1 CBI      -0.3864
     21 O4'         0.9245   40.9143   12.4768 O.3         1 CBI      -0.3401
     22 O5'         0.9290   44.6703   12.5205 O.3         1 CBI      -0.3407
     23 O6'        -1.2558   43.0074   14.6228 O.3         1 CBI      -0.3924
     24 H1          1.1072   38.9525   13.0067 H           1 CBI       0.0938
     25 H2          3.6229   40.6203   12.5549 H           1 CBI       0.0671
     26 H3          3.5958   37.6838   13.3889 H           1 CBI       0.0648
     27 H4          4.3497   40.0389   15.1959 H           1 CBI       0.0647
     28 H5          1.8645   38.2230   15.3297 H           1 CBI       0.0647
     29 H6          1.1108   39.4224   17.1837 H           1 CBI       0.0584
     30 H7          2.2437   40.7724   16.9551 H           1 CBI       0.0584
     31 H8          3.2681   38.1743   11.3507 H           1 CBI       0.2101
     32 H9          5.8007   38.2114   13.6776 H           1 CBI       0.2100
     33 H10         5.1399   37.6509   15.2174 H           1 CBI       0.2100
     34 H11         2.8782   38.1067   17.7253 H           1 CBI       0.2095
     35 H12         0.2822   44.9199   10.5509 H           1 CBI       0.0935
     36 H13         3.2077   44.0879   11.0312 H           1 CBI       0.0671
     37 H14         0.8378   42.3135   10.2377 H           1 CBI       0.0648
     38 H15         2.3754   42.3971   12.9003 H           1 CBI       0.0651
     39 H16        -0.5190   43.1949   12.2721 H           1 CBI       0.0647
     40 H17         0.3892   44.2245   14.8359 H           1 CBI       0.0584
     41 H18         0.6987   42.5065   14.8420 H           1 CBI       0.0584
     42 H19         0.9848   46.8525   11.1198 H           1 CBI       0.2126
     43 H20         2.8197   45.0253    9.0460 H           1 CBI       0.2101
     44 H21         2.7304   41.6909    9.3559 H           1 CBI       0.2100
     45 H22        -1.5911   43.8552   14.9861 H           1 CBI       0.2095
@<TRIPOS>BOND
     1     1    21   1
     2     1    10   1
     3     1     2   1
     4     2     7   1
     5     2     3   1
     6     3     8   1
     7     3     4   1
     8     4     9   1
     9     4     5   1
    10     5    10   1
    11     5     6   1
    12     6    11   1
    13    21    15   1
    14    15    16   1
    15    15    14   1
    16    14    20   1
    17    14    13   1
    18    13    19   1
    19    13    12   1
    20    12    22   1
    21    12    18   1
    22    22    16   1
    23    16    17   1
    24    17    23   1
    25     1    24   1
    26     2    25   1
    27     3    26   1
    28     4    27   1
    29     5    28   1
    30     6    29   1
    31     6    30   1
    32     7    31   1
    33     8    32   1
    34     9    33   1
    35    11    34   1
    36    12    35   1
    37    13    36   1
    38    14    37   1
    39    15    38   1
    40    16    39   1
    41    17    40   1
    42    17    41   1
    43    18    42   1
    44    19    43   1
    45    20    44   1
    46    23    45   1
@<TRIPOS>SUBSTRUCTURE
     1  CBI      1

