@<TRIPOS>MOLECULE
1qi0_ligand_033
    45    46
SMALL
GAST_HUCK
****
This file was generated by PARSER (from files_GN.cpp)

@<TRIPOS>ATOM
      1 C1          0.0811   43.0032   12.1533 C.3         1 CBI       0.1884
      2 C2         -0.1455   43.5879   13.5665 C.3         1 CBI       0.1341
      3 C3         -1.5799   43.2001   14.0168 C.3         1 CBI       0.1141
      4 C4         -2.6222   43.7589   13.0039 C.3         1 CBI       0.1119
      5 C5         -2.2571   43.3187   11.5477 C.3         1 CBI       0.1130
      6 C6         -3.1036   44.0258   10.4645 C.3         1 CBI       0.0730
      7 O2          0.8521   43.1188   14.4723 O.3         1 CBI      -0.3841
      8 O3         -1.8437   43.6693   15.3374 O.3         1 CBI      -0.3864
      9 O4         -3.9244   43.3022   13.3685 O.3         1 CBI      -0.3865
     10 O5         -0.8680   43.5879   11.2383 O.3         1 CBI      -0.3405
     11 O6         -2.8432   45.4244   10.4531 O.3         1 CBI      -0.3924
     12 C1'         3.1805   39.7253   10.2050 C.3         1 CBI       0.1854
     13 C2'         3.4593   40.0754   11.6947 C.3         1 CBI       0.1339
     14 C3'         2.3914   41.0698   12.2048 C.3         1 CBI       0.1144
     15 C4'         2.3299   42.3238   11.2774 C.3         1 CBI       0.1184
     16 C5'         2.0994   41.8852    9.7961 C.3         1 CBI       0.1134
     17 C6'         2.1577   43.0771    8.8064 C.3         1 CBI       0.0730
     18 O1'         4.2416   38.9283    9.6838 O.3         1 CBI      -0.3649
     19 O2'         3.4284   38.9184   12.5269 O.3         1 CBI      -0.3841
     20 O3'         2.6279   41.4435   13.5644 O.3         1 CBI      -0.3864
     21 O4'         1.4233   43.3425   11.7539 O.3         1 CBI      -0.3401
     22 O5'         3.1028   40.9204    9.3934 O.3         1 CBI      -0.3407
     23 O6'         3.4687   43.6313    8.7227 O.3         1 CBI      -0.3924
     24 H1         -0.0710   41.9217   12.1873 H           1 CBI       0.0938
     25 H2         -0.0524   44.6763   13.5179 H           1 CBI       0.0671
     26 H3         -1.6594   42.1091   14.0443 H           1 CBI       0.0648
     27 H4         -2.6191   44.8503   13.0724 H           1 CBI       0.0647
     28 H5         -2.4375   42.2428   11.4539 H           1 CBI       0.0647
     29 H6         -4.1694   43.8617   10.6344 H           1 CBI       0.0584
     30 H7         -2.8475   43.6200    9.4847 H           1 CBI       0.0584
     31 H8          0.4320   42.3953   14.9850 H           1 CBI       0.2101
     32 H9         -1.1183   43.3085   15.8917 H           1 CBI       0.2100
     33 H10        -4.5493   43.9119   12.9247 H           1 CBI       0.2100
     34 H11        -3.3304   45.7688    9.6723 H           1 CBI       0.2095
     35 H12         2.2511   39.1545   10.1134 H           1 CBI       0.0935
     36 H13         4.4492   40.5271   11.7700 H           1 CBI       0.0671
     37 H14         1.4374   40.5421   12.1930 H           1 CBI       0.0648
     38 H15         3.3161   42.7942   11.3247 H           1 CBI       0.0651
     39 H16         1.1097   41.4279    9.7069 H           1 CBI       0.0647
     40 H17         1.4796   43.8679    9.1272 H           1 CBI       0.0584
     41 H18         1.8440   42.7504    7.8133 H           1 CBI       0.0584
     42 H19         4.2826   38.1455   10.2710 H           1 CBI       0.2126
     43 H20         4.1398   38.3443   12.1892 H           1 CBI       0.2101
     44 H21         3.5717   41.6775   13.6158 H           1 CBI       0.2100
     45 H22         3.9586   43.0358    8.0993 H           1 CBI       0.2095
@<TRIPOS>BOND
     1     1    21   1
     2     1    10   1
     3     1     2   1
     4     2     7   1
     5     2     3   1
     6     3     8   1
     7     3     4   1
     8     4     9   1
     9     4     5   1
    10     5    10   1
    11     5     6   1
    12     6    11   1
    13    21    15   1
    14    15    16   1
    15    15    14   1
    16    14    20   1
    17    14    13   1
    18    13    19   1
    19    13    12   1
    20    12    22   1
    21    12    18   1
    22    22    16   1
    23    16    17   1
    24    17    23   1
    25     1    24   1
    26     2    25   1
    27     3    26   1
    28     4    27   1
    29     5    28   1
    30     6    29   1
    31     6    30   1
    32     7    31   1
    33     8    32   1
    34     9    33   1
    35    11    34   1
    36    12    35   1
    37    13    36   1
    38    14    37   1
    39    15    38   1
    40    16    39   1
    41    17    40   1
    42    17    41   1
    43    18    42   1
    44    19    43   1
    45    20    44   1
    46    23    45   1
@<TRIPOS>SUBSTRUCTURE
     1  CBI      1

