@<TRIPOS>MOLECULE
1qi0_ligand_040
    45    46
SMALL
GAST_HUCK
****
This file was generated by PARSER (from files_GN.cpp)

@<TRIPOS>ATOM
      1 C1          0.4246   37.8738   14.9441 C.3         1 CBI       0.1884
      2 C2          0.7427   36.9059   16.1151 C.3         1 CBI       0.1341
      3 C3          1.4762   37.7064   17.2264 C.3         1 CBI       0.1141
      4 C4          2.7302   38.4366   16.6702 C.3         1 CBI       0.1119
      5 C5          2.3738   39.2687   15.4001 C.3         1 CBI       0.1130
      6 C6          3.6186   39.8364   14.6696 C.3         1 CBI       0.0730
      7 O2         -0.4639   36.3588   16.6415 O.3         1 CBI      -0.3841
      8 O3          1.8362   36.8739   18.3244 O.3         1 CBI      -0.3864
      9 O4          3.2578   39.2755   17.6988 O.3         1 CBI      -0.3865
     10 O5          1.6533   38.4522   14.4497 O.3         1 CBI      -0.3405
     11 O6          4.5315   40.4776   15.5570 O.3         1 CBI      -0.3924
     12 C1'        -2.3809   38.1668   10.3263 C.3         1 CBI       0.1854
     13 C2'        -1.1888   37.1843   10.2079 C.3         1 CBI       0.1339
     14 C3'        -0.7975   36.6568   11.6158 C.3         1 CBI       0.1144
     15 C4'        -0.5582   37.8128   12.6341 C.3         1 CBI       0.1184
     16 C5'        -1.7894   38.7849   12.6207 C.3         1 CBI       0.1134
     17 C6'        -1.6144   40.0917   13.4487 C.3         1 CBI       0.0730
     18 O1'        -2.6484   38.7924    9.0761 O.3         1 CBI      -0.3649
     19 O2'        -1.5189   36.0886    9.3546 O.3         1 CBI      -0.3841
     20 O3'         0.3805   35.8534   11.5149 O.3         1 CBI      -0.3864
     21 O4'        -0.2864   37.1678   13.9055 O.3         1 CBI      -0.3401
     22 O5'        -2.0694   39.2098   11.2666 O.3         1 CBI      -0.3407
     23 O6'        -2.1740   39.9559   14.7505 O.3         1 CBI      -0.3924
     24 H1         -0.2244   38.6524   15.3428 H           1 CBI       0.0938
     25 H2          1.3714   36.0828   15.7587 H           1 CBI       0.0671
     26 H3          0.7892   38.4621   17.6177 H           1 CBI       0.0648
     27 H4          3.4871   37.6942   16.4133 H           1 CBI       0.0647
     28 H5          1.7417   40.1140   15.6944 H           1 CBI       0.0647
     29 H6          3.3051   40.5603   13.9108 H           1 CBI       0.0584
     30 H7          4.1558   39.0282   14.1671 H           1 CBI       0.0584
     31 H8         -0.8529   35.8305   15.9131 H           1 CBI       0.2101
     32 H9          2.3573   36.1414   17.9367 H           1 CBI       0.2100
     33 H10         2.5589   39.9393   17.8764 H           1 CBI       0.2100
     34 H11         4.0327   41.2086   15.9796 H           1 CBI       0.2095
     35 H12        -3.2857   37.6389   10.6408 H           1 CBI       0.0935
     36 H13        -0.3323   37.7095    9.7738 H           1 CBI       0.0671
     37 H14        -1.6049   36.0127   11.9843 H           1 CBI       0.0648
     38 H15         0.3209   38.3632   12.2859 H           1 CBI       0.0651
     39 H16        -2.6683   38.2485   13.0020 H           1 CBI       0.0647
     40 H17        -2.1286   40.9338   12.9730 H           1 CBI       0.0584
     41 H18        -0.5556   40.3531   13.5282 H           1 CBI       0.0584
     42 H19        -2.9376   38.0717    8.4786 H           1 CBI       0.2126
     43 H20        -1.6556   36.4808    8.4666 H           1 CBI       0.2101
     44 H21         0.1476   35.1184   10.9065 H           1 CBI       0.2100
     45 H22        -1.7585   40.6586   15.2957 H           1 CBI       0.2095
@<TRIPOS>BOND
     1     1    21   1
     2     1    10   1
     3     1     2   1
     4     2     7   1
     5     2     3   1
     6     3     8   1
     7     3     4   1
     8     4     9   1
     9     4     5   1
    10     5    10   1
    11     5     6   1
    12     6    11   1
    13    21    15   1
    14    15    16   1
    15    15    14   1
    16    14    20   1
    17    14    13   1
    18    13    19   1
    19    13    12   1
    20    12    22   1
    21    12    18   1
    22    22    16   1
    23    16    17   1
    24    17    23   1
    25     1    24   1
    26     2    25   1
    27     3    26   1
    28     4    27   1
    29     5    28   1
    30     6    29   1
    31     6    30   1
    32     7    31   1
    33     8    32   1
    34     9    33   1
    35    11    34   1
    36    12    35   1
    37    13    36   1
    38    14    37   1
    39    15    38   1
    40    16    39   1
    41    17    40   1
    42    17    41   1
    43    18    42   1
    44    19    43   1
    45    20    44   1
    46    23    45   1
@<TRIPOS>SUBSTRUCTURE
     1  CBI      1

