@<TRIPOS>MOLECULE
1qi0_ligand_048
    45    46
SMALL
GAST_HUCK
****
This file was generated by PARSER (from files_GN.cpp)

@<TRIPOS>ATOM
      1 C1          1.5645   39.0799   12.0755 C.3         1 CBI       0.1884
      2 C2          0.3832   39.8541   11.4255 C.3         1 CBI       0.1341
      3 C3          0.2394   39.3787    9.9546 C.3         1 CBI       0.1141
      4 C4          1.5757   39.5454    9.1762 C.3         1 CBI       0.1119
      5 C5          2.7765   38.9309    9.9688 C.3         1 CBI       0.1130
      6 C6          4.1301   39.3282    9.3357 C.3         1 CBI       0.0730
      7 O2         -0.8248   39.6244   12.1475 O.3         1 CBI      -0.3841
      8 O3         -0.7936   40.1131    9.2877 O.3         1 CBI      -0.3864
      9 O4          1.4727   38.9103    7.8971 O.3         1 CBI      -0.3865
     10 O5          2.7834   39.3602   11.3449 O.3         1 CBI      -0.3405
     11 O6          5.1999   39.2385   10.2808 O.3         1 CBI      -0.3924
     12 C1'         1.7926   37.6842   17.2211 C.3         1 CBI       0.1854
     13 C2'         3.1134   38.3836   16.7906 C.3         1 CBI       0.1339
     14 C3'         2.8280   39.3127   15.5796 C.3         1 CBI       0.1144
     15 C4'         2.1203   38.5398   14.4246 C.3         1 CBI       0.1184
     16 C5'         0.8791   37.7434   14.9719 C.3         1 CBI       0.1134
     17 C6'         0.2638   36.7811   13.9357 C.3         1 CBI       0.0730
     18 O1'         2.0244   36.8172   18.3316 O.3         1 CBI      -0.3649
     19 O2'         3.6432   39.1101   17.9058 O.3         1 CBI      -0.3841
     20 O3'         4.0684   39.8651   15.1311 O.3         1 CBI      -0.3864
     21 O4'         1.6931   39.5228   13.4438 O.3         1 CBI      -0.3401
     22 O5'         1.2474   36.9327   16.1109 O.3         1 CBI      -0.3407
     23 O6'        -0.7129   37.4281   13.1230 O.3         1 CBI      -0.3924
     24 H1          1.3270   37.9983   12.0706 H           1 CBI       0.0938
     25 H2          0.5907   40.9286   11.4419 H           1 CBI       0.0671
     26 H3         -0.0439   38.3161    9.9432 H           1 CBI       0.0648
     27 H4          1.7509   40.6280    9.0264 H           1 CBI       0.0647
     28 H5          2.7033   37.8441    9.9312 H           1 CBI       0.0647
     29 H6          4.0969   40.3601    8.9685 H           1 CBI       0.0584
     30 H7          4.3563   38.6669    8.4930 H           1 CBI       0.0584
     31 H8         -0.6889   40.0867   13.0005 H           1 CBI       0.2101
     32 H9         -1.6209   39.8095    9.7134 H           1 CBI       0.2100
     33 H10         0.8659   39.4866    7.3799 H           1 CBI       0.2100
     34 H11         4.9215   38.5335   10.8970 H           1 CBI       0.2095
     35 H12         1.0670   38.4417   17.5596 H           1 CBI       0.0935
     36 H13         3.8432   37.6221   16.5029 H           1 CBI       0.0671
     37 H14         2.1867   40.1331   15.9168 H           1 CBI       0.0648
     38 H15         2.8520   37.8249   14.0193 H           1 CBI       0.0651
     39 H16         0.1113   38.4472   15.2824 H           1 CBI       0.0647
     40 H17        -0.2231   35.9440   14.4494 H           1 CBI       0.0584
     41 H18         1.0488   36.3759   13.2884 H           1 CBI       0.0584
     42 H19         2.0541   35.9160   17.9476 H           1 CBI       0.2126
     43 H20         4.2429   38.4642   18.3352 H           1 CBI       0.2101
     44 H21         3.8267   40.4441   14.3836 H           1 CBI       0.2100
     45 H22        -1.0161   36.7286   12.5095 H           1 CBI       0.2095
@<TRIPOS>BOND
     1     1    21   1
     2     1    10   1
     3     1     2   1
     4     2     7   1
     5     2     3   1
     6     3     8   1
     7     3     4   1
     8     4     9   1
     9     4     5   1
    10     5    10   1
    11     5     6   1
    12     6    11   1
    13    21    15   1
    14    15    16   1
    15    15    14   1
    16    14    20   1
    17    14    13   1
    18    13    19   1
    19    13    12   1
    20    12    22   1
    21    12    18   1
    22    22    16   1
    23    16    17   1
    24    17    23   1
    25     1    24   1
    26     2    25   1
    27     3    26   1
    28     4    27   1
    29     5    28   1
    30     6    29   1
    31     6    30   1
    32     7    31   1
    33     8    32   1
    34     9    33   1
    35    11    34   1
    36    12    35   1
    37    13    36   1
    38    14    37   1
    39    15    38   1
    40    16    39   1
    41    17    40   1
    42    17    41   1
    43    18    42   1
    44    19    43   1
    45    20    44   1
    46    23    45   1
@<TRIPOS>SUBSTRUCTURE
     1  CBI      1

