@<TRIPOS>MOLECULE
1qi0_ligand_005
    45    46
SMALL
GAST_HUCK
****
This file was generated by PARSER (from files_GN.cpp)

@<TRIPOS>ATOM
      1 C1          1.5788   39.3995   15.2501 C.3         1 CBI       0.1884
      2 C2          1.6533   39.0021   16.7542 C.3         1 CBI       0.1341
      3 C3          1.8778   37.4675   16.8722 C.3         1 CBI       0.1141
      4 C4          0.7845   36.6948   16.0739 C.3         1 CBI       0.1119
      5 C5          0.6870   37.2317   14.6138 C.3         1 CBI       0.1130
      6 C6         -0.4720   36.5722   13.8256 C.3         1 CBI       0.0730
      7 O2          2.6954   39.7007   17.4443 O.3         1 CBI      -0.3841
      8 O3          1.8836   37.0635   18.2389 O.3         1 CBI      -0.3864
      9 O4          1.0429   35.2806   16.0830 O.3         1 CBI      -0.3865
     10 O5          0.4982   38.6618   14.6310 O.3         1 CBI      -0.3405
     11 O6         -0.6967   37.2344   12.5828 O.3         1 CBI      -0.3924
     12 C1'         2.1203   43.5636   11.9070 C.3         1 CBI       0.1854
     13 C2'         0.7273   43.6343   12.5794 C.3         1 CBI       0.1339
     14 C3'         0.7471   42.8299   13.9103 C.3         1 CBI       0.1144
     15 C4'         1.3252   41.3848   13.7533 C.3         1 CBI       0.1184
     16 C5'         2.6945   41.4605   12.9881 C.3         1 CBI       0.1134
     17 C6'         3.3784   40.1298   12.5787 C.3         1 CBI       0.0730
     18 O1'         2.0792   44.1556   10.6109 O.3         1 CBI      -0.3649
     19 O2'         0.3694   44.9912   12.8427 O.3         1 CBI      -0.3841
     20 O3'        -0.5871   42.7966   14.4272 O.3         1 CBI      -0.3864
     21 O4'         1.3938   40.8248   15.0940 O.3         1 CBI      -0.3401
     22 O5'         2.5278   42.1906   11.7532 O.3         1 CBI      -0.3407
     23 O6'         2.4467   39.0847   12.3135 O.3         1 CBI      -0.3924
     24 H1          2.5192   39.1213   14.7908 H           1 CBI       0.0938
     25 H2          0.6968   39.2629   17.2330 H           1 CBI       0.0671
     26 H3          2.8550   37.2308   16.4622 H           1 CBI       0.0648
     27 H4         -0.1781   36.8474   16.5746 H           1 CBI       0.0647
     28 H5          1.6137   36.9956   14.0824 H           1 CBI       0.0647
     29 H6         -1.3957   36.5942   14.4118 H           1 CBI       0.0584
     30 H7         -0.2237   35.5319   13.6054 H           1 CBI       0.0584
     31 H8          2.5930   40.6494   17.2109 H           1 CBI       0.2101
     32 H9          2.0969   36.1033   18.2247 H           1 CBI       0.2100
     33 H10         1.3849   35.0675   15.1820 H           1 CBI       0.2100
     34 H11        -1.0539   38.1260   12.8303 H           1 CBI       0.2095
     35 H12         2.8595   44.1163   12.5039 H           1 CBI       0.0935
     36 H13        -0.0176   43.2023   11.9054 H           1 CBI       0.0671
     37 H14         1.3610   43.3783   14.6287 H           1 CBI       0.0648
     38 H15         0.6058   40.8269   13.1435 H           1 CBI       0.0651
     39 H16         3.4042   41.9950   13.6231 H           1 CBI       0.0647
     40 H17         4.0676   39.8012   13.3580 H           1 CBI       0.0584
     41 H18         3.9880   40.2857   11.6848 H           1 CBI       0.0584
     42 H19         2.9728   43.9887   10.2341 H           1 CBI       0.2126
     43 H20         0.2685   45.4203   11.9656 H           1 CBI       0.2101
     44 H21        -0.4771   42.6655   15.3814 H           1 CBI       0.2100
     45 H22         2.9976   38.3074   12.0751 H           1 CBI       0.2095
@<TRIPOS>BOND
     1     1    21   1
     2     1    10   1
     3     1     2   1
     4     2     7   1
     5     2     3   1
     6     3     8   1
     7     3     4   1
     8     4     9   1
     9     4     5   1
    10     5    10   1
    11     5     6   1
    12     6    11   1
    13    21    15   1
    14    15    16   1
    15    15    14   1
    16    14    20   1
    17    14    13   1
    18    13    19   1
    19    13    12   1
    20    12    22   1
    21    12    18   1
    22    22    16   1
    23    16    17   1
    24    17    23   1
    25     1    24   1
    26     2    25   1
    27     3    26   1
    28     4    27   1
    29     5    28   1
    30     6    29   1
    31     6    30   1
    32     7    31   1
    33     8    32   1
    34     9    33   1
    35    11    34   1
    36    12    35   1
    37    13    36   1
    38    14    37   1
    39    15    38   1
    40    16    39   1
    41    17    40   1
    42    17    41   1
    43    18    42   1
    44    19    43   1
    45    20    44   1
    46    23    45   1
@<TRIPOS>SUBSTRUCTURE
     1  CBI      1

