@<TRIPOS>MOLECULE
1qi0_ligand_025
    45    46
SMALL
GAST_HUCK
****
This file was generated by PARSER (from files_GN.cpp)

@<TRIPOS>ATOM
      1 C1          1.8392   41.7268   11.4254 C.3         1 CBI       0.1884
      2 C2          0.9330   41.7583   10.1615 C.3         1 CBI       0.1341
      3 C3          1.7345   42.3487    8.9636 C.3         1 CBI       0.1141
      4 C4          2.3231   43.7417    9.3131 C.3         1 CBI       0.1119
      5 C5          3.1035   43.7129   10.6640 C.3         1 CBI       0.1130
      6 C6          3.4620   45.1047   11.2595 C.3         1 CBI       0.0730
      7 O2          0.4877   40.4417    9.8252 O.3         1 CBI      -0.3841
      8 O3          0.9114   42.4490    7.7994 O.3         1 CBI      -0.3864
      9 O4          3.1681   44.1175    8.2300 O.3         1 CBI      -0.3865
     10 O5          2.3323   43.0545   11.6992 O.3         1 CBI      -0.3405
     11 O6          3.5432   46.1379   10.2829 O.3         1 CBI      -0.3924
     12 C1'         3.6579   38.5619   14.5956 C.3         1 CBI       0.1854
     13 C2'         2.1956   38.1194   14.3676 C.3         1 CBI       0.1339
     14 C3'         1.5302   39.0416   13.3075 C.3         1 CBI       0.1144
     15 C4'         1.6882   40.5560   13.6498 C.3         1 CBI       0.1184
     16 C5'         3.1704   40.8887   14.0572 C.3         1 CBI       0.1134
     17 C6'         3.3678   42.2987   14.6673 C.3         1 CBI       0.0730
     18 O1'         4.2456   37.7559   15.6078 O.3         1 CBI      -0.3649
     19 O2'         2.1358   36.7552   13.9533 O.3         1 CBI      -0.3841
     20 O3'         0.1432   38.7094   13.1864 O.3         1 CBI      -0.3864
     21 O4'         1.0895   41.3519   12.5971 O.3         1 CBI      -0.3401
     22 O5'         3.6909   39.9389   15.0237 O.3         1 CBI      -0.3407
     23 O6'         2.3227   42.6365   15.5727 O.3         1 CBI      -0.3924
     24 H1          2.6700   41.0432   11.2336 H           1 CBI       0.0938
     25 H2          0.0545   42.3834   10.3457 H           1 CBI       0.0671
     26 H3          2.5609   41.6657    8.7220 H           1 CBI       0.0648
     27 H4          1.5081   44.4616    9.3962 H           1 CBI       0.0647
     28 H5          4.0254   43.1464   10.5074 H           1 CBI       0.0647
     29 H6          4.4175   45.0262   11.7881 H           1 CBI       0.0584
     30 H7          2.7042   45.4199   11.9808 H           1 CBI       0.0584
     31 H8         -0.1302   40.1846   10.5395 H           1 CBI       0.2101
     32 H9          0.7017   41.5292    7.5364 H           1 CBI       0.2100
     33 H10         3.5890   44.9675    8.4966 H           1 CBI       0.2100
     34 H11         4.3941   46.6188   10.4682 H           1 CBI       0.2095
     35 H12         4.2379   38.4324   13.6782 H           1 CBI       0.0935
     36 H13         1.6428   38.2065   15.3073 H           1 CBI       0.0671
     37 H14         1.9960   38.8483   12.3384 H           1 CBI       0.0648
     38 H15         1.0662   40.7357   14.5346 H           1 CBI       0.0651
     39 H16         3.7948   40.8315   13.1667 H           1 CBI       0.0647
     40 H17         3.3977   43.0525   13.8761 H           1 CBI       0.0584
     41 H18         4.3141   42.3296   15.2120 H           1 CBI       0.0584
     42 H19         5.1707   37.5992   15.3173 H           1 CBI       0.2126
     43 H20         2.7156   36.6881   13.1639 H           1 CBI       0.2101
     44 H21        -0.2428   38.8737   14.0738 H           1 CBI       0.2100
     45 H22         2.6929   42.4896   16.4659 H           1 CBI       0.2095
@<TRIPOS>BOND
     1     1    21   1
     2     1    10   1
     3     1     2   1
     4     2     7   1
     5     2     3   1
     6     3     8   1
     7     3     4   1
     8     4     9   1
     9     4     5   1
    10     5    10   1
    11     5     6   1
    12     6    11   1
    13    21    15   1
    14    15    16   1
    15    15    14   1
    16    14    20   1
    17    14    13   1
    18    13    19   1
    19    13    12   1
    20    12    22   1
    21    12    18   1
    22    22    16   1
    23    16    17   1
    24    17    23   1
    25     1    24   1
    26     2    25   1
    27     3    26   1
    28     4    27   1
    29     5    28   1
    30     6    29   1
    31     6    30   1
    32     7    31   1
    33     8    32   1
    34     9    33   1
    35    11    34   1
    36    12    35   1
    37    13    36   1
    38    14    37   1
    39    15    38   1
    40    16    39   1
    41    17    40   1
    42    17    41   1
    43    18    42   1
    44    19    43   1
    45    20    44   1
    46    23    45   1
@<TRIPOS>SUBSTRUCTURE
     1  CBI      1

