@<TRIPOS>MOLECULE
1qi0_ligand_029
    45    46
SMALL
GAST_HUCK
****
This file was generated by PARSER (from files_GN.cpp)

@<TRIPOS>ATOM
      1 C1         -1.2969   42.8746   12.0811 C.3         1 CBI       0.1884
      2 C2         -0.5239   42.5819   13.3979 C.3         1 CBI       0.1341
      3 C3          0.7279   43.4962   13.4632 C.3         1 CBI       0.1141
      4 C4          1.5959   43.3478   12.1829 C.3         1 CBI       0.1119
      5 C5          0.7346   43.4694   10.8857 C.3         1 CBI       0.1130
      6 C6          1.5776   43.1232    9.6267 C.3         1 CBI       0.0730
      7 O2         -1.3855   42.7941   14.5192 O.3         1 CBI      -0.3841
      8 O3          1.5270   43.2206   14.6109 O.3         1 CBI      -0.3864
      9 O4          2.6399   44.3203   12.1840 O.3         1 CBI      -0.3865
     10 O5         -0.4274   42.6096   10.9570 O.3         1 CBI      -0.3405
     11 O6          0.7852   42.5087    8.6145 O.3         1 CBI      -0.3924
     12 C1'        -6.6459   42.3584   11.4119 C.3         1 CBI       0.1854
     13 C2'        -5.8244   41.7860   10.2294 C.3         1 CBI       0.1339
     14 C3'        -4.4005   41.3903   10.7080 C.3         1 CBI       0.1144
     15 C4'        -3.6943   42.5519   11.4759 C.3         1 CBI       0.1184
     16 C5'        -4.6519   43.0925   12.5912 C.3         1 CBI       0.1134
     17 C6'        -4.1050   44.3479   13.3209 C.3         1 CBI       0.0730
     18 O1'        -7.9061   42.8475   10.9627 O.3         1 CBI      -0.3649
     19 O2'        -6.5023   40.6590    9.6709 O.3         1 CBI      -0.3841
     20 O3'        -3.6049   40.9908    9.5885 O.3         1 CBI      -0.3864
     21 O4'        -2.4652   42.0214   12.0313 O.3         1 CBI      -0.3401
     22 O5'        -5.9315   43.4442   12.0342 O.3         1 CBI      -0.3407
     23 O6'        -5.1423   45.0564   14.0088 O.3         1 CBI      -0.3924
     24 H1         -1.6020   43.9273   12.0808 H           1 CBI       0.0938
     25 H2         -0.2046   41.5305   13.4034 H           1 CBI       0.0671
     26 H3          0.3969   44.5328   13.5438 H           1 CBI       0.0648
     27 H4          2.0688   42.3610   12.1993 H           1 CBI       0.0647
     28 H5          0.3931   44.5037   10.7704 H           1 CBI       0.0647
     29 H6          2.3862   42.4394    9.8847 H           1 CBI       0.0584
     30 H7          2.0166   44.0316    9.2061 H           1 CBI       0.0584
     31 H8         -0.8340   42.6010   15.3062 H           1 CBI       0.2101
     32 H9          1.3410   42.2867   14.8595 H           1 CBI       0.2100
     33 H10         2.1906   45.1908   12.1798 H           1 CBI       0.2100
     34 H11         0.5444   41.6326    8.9860 H           1 CBI       0.2095
     35 H12        -6.8458   41.5726   12.1417 H           1 CBI       0.0935
     36 H13        -5.7401   42.5558    9.4511 H           1 CBI       0.0671
     37 H14        -4.4796   40.5233   11.3734 H           1 CBI       0.0648
     38 H15        -3.4936   43.3460   10.7506 H           1 CBI       0.0651
     39 H16        -4.7956   42.3155   13.3528 H           1 CBI       0.0647
     40 H17        -3.6336   45.0214   12.6034 H           1 CBI       0.0584
     41 H18        -3.3536   44.0525   14.0670 H           1 CBI       0.0584
     42 H19        -7.7129   43.6975   10.5139 H           1 CBI       0.2126
     43 H20        -6.0050   40.4374    8.8516 H           1 CBI       0.2101
     44 H21        -3.5636   41.7784    9.0107 H           1 CBI       0.2100
     45 H22        -5.8095   45.2922   13.3316 H           1 CBI       0.2095
@<TRIPOS>BOND
     1     1    21   1
     2     1    10   1
     3     1     2   1
     4     2     7   1
     5     2     3   1
     6     3     8   1
     7     3     4   1
     8     4     9   1
     9     4     5   1
    10     5    10   1
    11     5     6   1
    12     6    11   1
    13    21    15   1
    14    15    16   1
    15    15    14   1
    16    14    20   1
    17    14    13   1
    18    13    19   1
    19    13    12   1
    20    12    22   1
    21    12    18   1
    22    22    16   1
    23    16    17   1
    24    17    23   1
    25     1    24   1
    26     2    25   1
    27     3    26   1
    28     4    27   1
    29     5    28   1
    30     6    29   1
    31     6    30   1
    32     7    31   1
    33     8    32   1
    34     9    33   1
    35    11    34   1
    36    12    35   1
    37    13    36   1
    38    14    37   1
    39    15    38   1
    40    16    39   1
    41    17    40   1
    42    17    41   1
    43    18    42   1
    44    19    43   1
    45    20    44   1
    46    23    45   1
@<TRIPOS>SUBSTRUCTURE
     1  CBI      1

