@<TRIPOS>MOLECULE
1qi0_ligand_028
    45    46
SMALL
GAST_HUCK
****
This file was generated by PARSER (from files_GN.cpp)

@<TRIPOS>ATOM
      1 C1          0.4376   37.1789   14.9962 C.3         1 CBI       0.1884
      2 C2          0.7386   36.5340   16.3716 C.3         1 CBI       0.1341
      3 C3          1.4404   37.5667   17.2949 C.3         1 CBI       0.1141
      4 C4          2.6882   38.2146   16.6276 C.3         1 CBI       0.1119
      5 C5          2.3551   38.7045   15.1840 C.3         1 CBI       0.1130
      6 C6          3.6069   39.1006   14.3563 C.3         1 CBI       0.0730
      7 O2         -0.4689   36.0809   16.9890 O.3         1 CBI      -0.3841
      8 O3          1.8245   36.9571   18.5265 O.3         1 CBI      -0.3864
      9 O4          3.1627   39.3004   17.4310 O.3         1 CBI      -0.3865
     10 O5          1.6800   37.6656   14.4474 O.3         1 CBI      -0.3405
     11 O6          4.4253   40.0292   15.0609 O.3         1 CBI      -0.3924
     12 C1'        -2.2081   38.5934   11.2349 C.3         1 CBI       0.1854
     13 C2'        -3.0348   37.5011   11.9602 C.3         1 CBI       0.1339
     14 C3'        -2.2864   37.0188   13.2310 C.3         1 CBI       0.1144
     15 C4'        -0.8240   36.5852   12.8993 C.3         1 CBI       0.1184
     16 C5'        -0.0995   37.6673   12.0276 C.3         1 CBI       0.1134
     17 C6'         1.2618   37.1802   11.4603 C.3         1 CBI       0.0730
     18 O1'        -2.8363   38.9700   10.0148 O.3         1 CBI      -0.3649
     19 O2'        -4.3338   37.9904   12.2916 O.3         1 CBI      -0.3841
     20 O3'        -3.0246   35.9379   13.8071 O.3         1 CBI      -0.3864
     21 O4'        -0.1128   36.1840   14.1006 O.3         1 CBI      -0.3401
     22 O5'        -0.9035   38.0843   10.9004 O.3         1 CBI      -0.3407
     23 O6'         2.0676   38.2965   11.0902 O.3         1 CBI      -0.3924
     24 H1         -0.2700   38.0019   15.1345 H           1 CBI       0.0938
     25 H2          1.3966   35.6698   16.2267 H           1 CBI       0.0671
     26 H3          0.7245   38.3584   17.5322 H           1 CBI       0.0648
     27 H4          3.4845   37.4696   16.5807 H           1 CBI       0.0647
     28 H5          1.6998   39.5859   15.2439 H           1 CBI       0.0647
     29 H6          3.2856   39.5654   13.4216 H           1 CBI       0.0584
     30 H7          4.1976   38.2168   14.1124 H           1 CBI       0.0584
     31 H8         -0.7666   35.3176   16.4511 H           1 CBI       0.2101
     32 H9          2.2253   36.0960   18.2778 H           1 CBI       0.2100
     33 H10         2.4264   39.9475   17.4536 H           1 CBI       0.2100
     34 H11         4.5313   40.7952   14.4585 H           1 CBI       0.2095
     35 H12        -2.1154   39.4880   11.8606 H           1 CBI       0.0935
     36 H13        -3.1623   36.6539   11.2806 H           1 CBI       0.0671
     37 H14        -2.2728   37.8402   13.9527 H           1 CBI       0.0648
     38 H15        -0.9032   35.6804   12.2873 H           1 CBI       0.0651
     39 H16         0.0847   38.5504   12.6492 H           1 CBI       0.0647
     40 H17         1.1087   36.5469   10.5842 H           1 CBI       0.0584
     41 H18         1.8083   36.5890   12.1939 H           1 CBI       0.0584
     42 H19        -3.6470   39.4516   10.2798 H           1 CBI       0.2126
     43 H20        -4.1851   38.7479   12.8964 H           1 CBI       0.2101
     44 H21        -2.6209   35.7714   14.6859 H           1 CBI       0.2100
     45 H22         2.9867   37.9569   11.1284 H           1 CBI       0.2095
@<TRIPOS>BOND
     1     1    21   1
     2     1    10   1
     3     1     2   1
     4     2     7   1
     5     2     3   1
     6     3     8   1
     7     3     4   1
     8     4     9   1
     9     4     5   1
    10     5    10   1
    11     5     6   1
    12     6    11   1
    13    21    15   1
    14    15    16   1
    15    15    14   1
    16    14    20   1
    17    14    13   1
    18    13    19   1
    19    13    12   1
    20    12    22   1
    21    12    18   1
    22    22    16   1
    23    16    17   1
    24    17    23   1
    25     1    24   1
    26     2    25   1
    27     3    26   1
    28     4    27   1
    29     5    28   1
    30     6    29   1
    31     6    30   1
    32     7    31   1
    33     8    32   1
    34     9    33   1
    35    11    34   1
    36    12    35   1
    37    13    36   1
    38    14    37   1
    39    15    38   1
    40    16    39   1
    41    17    40   1
    42    17    41   1
    43    18    42   1
    44    19    43   1
    45    20    44   1
    46    23    45   1
@<TRIPOS>SUBSTRUCTURE
     1  CBI      1

