@<TRIPOS>MOLECULE
1qi0_ligand_051
    45    46
SMALL
GAST_HUCK
****
This file was generated by PARSER (from files_GN.cpp)

@<TRIPOS>ATOM
      1 C1         -0.0220   42.0906   13.1802 C.3         1 CBI       0.1884
      2 C2         -0.8278   43.3484   13.6314 C.3         1 CBI       0.1341
      3 C3         -1.8885   43.7467   12.5551 C.3         1 CBI       0.1141
      4 C4         -1.2623   43.8307   11.1259 C.3         1 CBI       0.1119
      5 C5         -0.5202   42.5006   10.8213 C.3         1 CBI       0.1130
      6 C6          0.2197   42.4281    9.4668 C.3         1 CBI       0.0730
      7 O2         -1.4937   43.0953   14.8637 O.3         1 CBI      -0.3841
      8 O3         -2.4996   44.9943   12.8956 O.3         1 CBI      -0.3864
      9 O4         -2.2685   44.0872   10.1469 O.3         1 CBI      -0.3865
     10 O5          0.4770   42.3275   11.8517 O.3         1 CBI      -0.3405
     11 O6          1.3108   43.3423    9.4133 O.3         1 CBI      -0.3924
     12 C1'         4.4291   39.1122   13.7665 C.3         1 CBI       0.1854
     13 C2'         3.5528   39.1742   12.4901 C.3         1 CBI       0.1339
     14 C3'         2.5526   40.3579   12.5226 C.3         1 CBI       0.1144
     15 C4'         1.8155   40.5528   13.8950 C.3         1 CBI       0.1184
     16 C5'         2.8666   40.4406   15.0509 C.3         1 CBI       0.1134
     17 C6'         2.2562   40.4572   16.4781 C.3         1 CBI       0.0730
     18 O1'         5.1025   37.8636   13.8165 O.3         1 CBI      -0.3649
     19 O2'         4.3654   39.2878   11.3165 O.3         1 CBI      -0.3841
     20 O3'         1.6334   40.0970   11.4621 O.3         1 CBI      -0.3864
     21 O4'         1.1221   41.8284   14.0244 O.3         1 CBI      -0.3401
     22 O5'         3.6133   39.2091   14.9394 O.3         1 CBI      -0.3407
     23 O6'         3.1669   39.9745   17.4672 O.3         1 CBI      -0.3924
     24 H1         -0.6855   41.2234   13.1931 H           1 CBI       0.0938
     25 H2         -0.1352   44.1856   13.7772 H           1 CBI       0.0671
     26 H3         -2.6866   42.9933   12.5501 H           1 CBI       0.0648
     27 H4         -0.5412   44.6566   11.1104 H           1 CBI       0.0647
     28 H5         -1.2394   41.6742   10.8318 H           1 CBI       0.0647
     29 H6         -0.4628   42.6289    8.6413 H           1 CBI       0.0584
     30 H7          0.6163   41.4225    9.3329 H           1 CBI       0.0584
     31 H8         -0.8001   42.8801   15.5218 H           1 CBI       0.2101
     32 H9         -3.1982   45.1320   12.2209 H           1 CBI       0.2100
     33 H10        -1.7812   44.2205    9.3052 H           1 CBI       0.2100
     34 H11         1.7636   43.1562    8.5672 H           1 CBI       0.2095
     35 H12         5.1821   39.9044   13.7689 H           1 CBI       0.0935
     36 H13         2.9859   38.2392   12.4290 H           1 CBI       0.0671
     37 H14         3.0816   41.2875   12.2882 H           1 CBI       0.0648
     38 H15         1.0962   39.7402   14.0213 H           1 CBI       0.0651
     39 H16         3.5561   41.2918   14.9924 H           1 CBI       0.0647
     40 H17         1.3508   39.8475   16.5189 H           1 CBI       0.0584
     41 H18         2.0065   41.4836   16.7456 H           1 CBI       0.0584
     42 H19         5.5436   37.8487   14.6956 H           1 CBI       0.2126
     43 H20         4.6606   38.3797   11.1136 H           1 CBI       0.2101
     44 H21         2.1475   40.2361   10.6356 H           1 CBI       0.2100
     45 H22         3.3023   39.0253   17.2584 H           1 CBI       0.2095
@<TRIPOS>BOND
     1     1    21   1
     2     1    10   1
     3     1     2   1
     4     2     7   1
     5     2     3   1
     6     3     8   1
     7     3     4   1
     8     4     9   1
     9     4     5   1
    10     5    10   1
    11     5     6   1
    12     6    11   1
    13    21    15   1
    14    15    16   1
    15    15    14   1
    16    14    20   1
    17    14    13   1
    18    13    19   1
    19    13    12   1
    20    12    22   1
    21    12    18   1
    22    22    16   1
    23    16    17   1
    24    17    23   1
    25     1    24   1
    26     2    25   1
    27     3    26   1
    28     4    27   1
    29     5    28   1
    30     6    29   1
    31     6    30   1
    32     7    31   1
    33     8    32   1
    34     9    33   1
    35    11    34   1
    36    12    35   1
    37    13    36   1
    38    14    37   1
    39    15    38   1
    40    16    39   1
    41    17    40   1
    42    17    41   1
    43    18    42   1
    44    19    43   1
    45    20    44   1
    46    23    45   1
@<TRIPOS>SUBSTRUCTURE
     1  CBI      1

