@<TRIPOS>MOLECULE
1qi0_ligand_000
    45    46
SMALL
GAST_HUCK
****
This file was generated by PARSER (from files_GN.cpp)

@<TRIPOS>ATOM
      1 C1          0.5998   43.3263   12.3034 C.3         1 CBI       0.1884
      2 C2          0.1180   43.6828   13.7318 C.3         1 CBI       0.1341
      3 C3         -1.2252   42.9435   14.0052 C.3         1 CBI       0.1141
      4 C4         -2.2630   43.2626   12.8907 C.3         1 CBI       0.1119
      5 C5         -1.6593   43.0693   11.4665 C.3         1 CBI       0.1130
      6 C6         -2.6029   43.6031   10.3688 C.3         1 CBI       0.0730
      7 O2          1.1185   43.3293   14.6889 O.3         1 CBI      -0.3841
      8 O3         -1.7692   43.3199   15.2807 O.3         1 CBI      -0.3864
      9 O4         -3.4125   42.4312   13.0696 O.3         1 CBI      -0.3865
     10 O5         -0.3937   43.7337   11.3294 O.3         1 CBI      -0.3405
     11 O6         -2.6593   45.0319   10.3888 O.3         1 CBI      -0.3924
     12 C1'         3.3170   43.0521    8.1401 C.3         1 CBI       0.1854
     13 C2'         3.5504   41.9466    9.2061 C.3         1 CBI       0.1339
     14 C3'         2.5969   42.1770   10.4016 C.3         1 CBI       0.1144
     15 C4'         2.7132   43.6297   10.9510 C.3         1 CBI       0.1184
     16 C5'         2.5879   44.6905    9.8126 C.3         1 CBI       0.1134
     17 C6'         2.9460   46.1409   10.2872 C.3         1 CBI       0.0730
     18 O1'         4.2674   42.8716    7.0864 O.3         1 CBI      -0.3649
     19 O2'         3.3376   40.6522    8.6416 O.3         1 CBI      -0.3841
     20 O3'         2.8792   41.2140   11.4149 O.3         1 CBI      -0.3864
     21 O4'         1.8685   43.9762   12.0811 O.3         1 CBI      -0.3401
     22 O5'         3.4798   44.3655    8.7242 O.3         1 CBI      -0.3407
     23 O6'         3.7902   46.8547    9.3657 O.3         1 CBI      -0.3924
     24 H1          0.7366   42.2353   12.2828 H           1 CBI       0.0938
     25 H2         -0.0404   44.7687   13.7736 H           1 CBI       0.0671
     26 H3         -1.0335   41.8669   14.0162 H           1 CBI       0.0648
     27 H4         -2.5868   44.3027   13.0210 H           1 CBI       0.0647
     28 H5         -1.5207   42.0014   11.2843 H           1 CBI       0.0647
     29 H6         -3.6172   43.1972   10.5128 H           1 CBI       0.0584
     30 H7         -2.2543   43.2854    9.3735 H           1 CBI       0.0584
     31 H8          0.7646   42.5374   15.1674 H           1 CBI       0.2101
     32 H9         -0.9816   43.5455   15.8185 H           1 CBI       0.2100
     33 H10        -3.1026   41.5113   12.9276 H           1 CBI       0.2100
     34 H11        -3.6121   45.2537   10.2134 H           1 CBI       0.2095
     35 H12         2.2953   42.9560    7.7070 H           1 CBI       0.0935
     36 H13         4.5851   42.0069    9.5505 H           1 CBI       0.0671
     37 H14         1.5775   42.0088   10.0429 H           1 CBI       0.0648
     38 H15         3.7376   43.7231   11.3350 H           1 CBI       0.0651
     39 H16         1.5563   44.7025    9.4445 H           1 CBI       0.0647
     40 H17         3.4584   46.1267   11.2599 H           1 CBI       0.0584
     41 H18         2.0263   46.7341   10.4194 H           1 CBI       0.0584
     42 H19         4.5388   43.7849    6.8429 H           1 CBI       0.2126
     43 H20         4.0709   40.5370    7.9956 H           1 CBI       0.2101
     44 H21         3.5751   41.6054   11.9814 H           1 CBI       0.2100
     45 H22         4.5728   47.1228    9.9037 H           1 CBI       0.2095
@<TRIPOS>BOND
     1     1    21   1
     2     1    10   1
     3     1     2   1
     4     2     7   1
     5     2     3   1
     6     3     8   1
     7     3     4   1
     8     4     9   1
     9     4     5   1
    10     5    10   1
    11     5     6   1
    12     6    11   1
    13    21    15   1
    14    15    16   1
    15    15    14   1
    16    14    20   1
    17    14    13   1
    18    13    19   1
    19    13    12   1
    20    12    22   1
    21    12    18   1
    22    22    16   1
    23    16    17   1
    24    17    23   1
    25     1    24   1
    26     2    25   1
    27     3    26   1
    28     4    27   1
    29     5    28   1
    30     6    29   1
    31     6    30   1
    32     7    31   1
    33     8    32   1
    34     9    33   1
    35    11    34   1
    36    12    35   1
    37    13    36   1
    38    14    37   1
    39    15    38   1
    40    16    39   1
    41    17    40   1
    42    17    41   1
    43    18    42   1
    44    19    43   1
    45    20    44   1
    46    23    45   1
@<TRIPOS>SUBSTRUCTURE
     1  CBI      1

