@<TRIPOS>MOLECULE
1qi0_ligand_010
    45    46
SMALL
GAST_HUCK
****
This file was generated by PARSER (from files_GN.cpp)

@<TRIPOS>ATOM
      1 C1          2.0191   43.0469   12.2437 C.3         1 CBI       0.1884
      2 C2          0.8973   44.0132   11.7757 C.3         1 CBI       0.1341
      3 C3         -0.1891   44.1695   12.8750 C.3         1 CBI       0.1141
      4 C4         -0.7048   42.7871   13.3574 C.3         1 CBI       0.1119
      5 C5          0.4871   41.8513   13.7446 C.3         1 CBI       0.1130
      6 C6          0.0241   40.3951   14.0409 C.3         1 CBI       0.0730
      7 O2          1.4614   45.2908   11.4705 O.3         1 CBI      -0.3841
      8 O3         -1.2723   44.9490   12.3631 O.3         1 CBI      -0.3864
      9 O4         -1.5922   42.9587   14.4669 O.3         1 CBI      -0.3865
     10 O5          1.4755   41.7845   12.6872 O.3         1 CBI      -0.3405
     11 O6          0.0602   39.5663   12.8770 O.3         1 CBI      -0.3924
     12 C1'         4.1559   40.3201    8.0101 C.3         1 CBI       0.1854
     13 C2'         3.0913   41.4059    7.6961 C.3         1 CBI       0.1339
     14 C3'         3.0956   42.4834    8.8138 C.3         1 CBI       0.1144
     15 C4'         2.8707   41.8303   10.2112 C.3         1 CBI       0.1184
     16 C5'         3.9441   40.7137   10.4161 C.3         1 CBI       0.1134
     17 C6'         3.7452   39.8667   11.6963 C.3         1 CBI       0.0730
     18 O1'         4.0697   39.2365    7.0829 O.3         1 CBI      -0.3649
     19 O2'         3.3551   42.0022    6.4258 O.3         1 CBI      -0.3841
     20 O3'         2.0879   43.4443    8.5284 O.3         1 CBI      -0.3864
     21 O4'         3.0307   42.8455   11.2306 O.3         1 CBI      -0.3401
     22 O5'         3.9406   39.7699    9.3191 O.3         1 CBI      -0.3407
     23 O6'         2.6083   39.0120   11.5871 O.3         1 CBI      -0.3924
     24 H1          2.5403   43.5084   13.0875 H           1 CBI       0.0938
     25 H2          0.4283   43.6129   10.8745 H           1 CBI       0.0671
     26 H3          0.2407   44.7093   13.7237 H           1 CBI       0.0648
     27 H4         -1.2738   42.3193   12.5465 H           1 CBI       0.0647
     28 H5          0.9536   42.2430   14.6579 H           1 CBI       0.0647
     29 H6         -0.9941   40.3885   14.4457 H           1 CBI       0.0584
     30 H7          0.6944   39.9523   14.7867 H           1 CBI       0.0584
     31 H8          0.7068   45.8681   11.2240 H           1 CBI       0.2101
     32 H9         -2.0417   44.7346   12.9254 H           1 CBI       0.2100
     33 H10        -1.1256   43.5534   15.0929 H           1 CBI       0.2100
     34 H11        -0.6169   39.9495   12.2778 H           1 CBI       0.2095
     35 H12         5.1632   40.7453    7.9469 H           1 CBI       0.0935
     36 H13         2.1002   40.9343    7.6515 H           1 CBI       0.0671
     37 H14         4.0586   43.0004    8.7975 H           1 CBI       0.0648
     38 H15         1.8717   41.3755   10.2282 H           1 CBI       0.0651
     39 H16         4.9321   41.1817   10.4801 H           1 CBI       0.0647
     40 H17         3.6246   40.5076   12.5714 H           1 CBI       0.0584
     41 H18         4.6341   39.2474   11.8481 H           1 CBI       0.0584
     42 H19         4.4341   39.5769    6.2368 H           1 CBI       0.2126
     43 H20         2.9150   41.4134    5.7743 H           1 CBI       0.2101
     44 H21         2.2310   44.1641    9.1761 H           1 CBI       0.2100
     45 H22         2.9671   38.1139   11.7292 H           1 CBI       0.2095
@<TRIPOS>BOND
     1     1    21   1
     2     1    10   1
     3     1     2   1
     4     2     7   1
     5     2     3   1
     6     3     8   1
     7     3     4   1
     8     4     9   1
     9     4     5   1
    10     5    10   1
    11     5     6   1
    12     6    11   1
    13    21    15   1
    14    15    16   1
    15    15    14   1
    16    14    20   1
    17    14    13   1
    18    13    19   1
    19    13    12   1
    20    12    22   1
    21    12    18   1
    22    22    16   1
    23    16    17   1
    24    17    23   1
    25     1    24   1
    26     2    25   1
    27     3    26   1
    28     4    27   1
    29     5    28   1
    30     6    29   1
    31     6    30   1
    32     7    31   1
    33     8    32   1
    34     9    33   1
    35    11    34   1
    36    12    35   1
    37    13    36   1
    38    14    37   1
    39    15    38   1
    40    16    39   1
    41    17    40   1
    42    17    41   1
    43    18    42   1
    44    19    43   1
    45    20    44   1
    46    23    45   1
@<TRIPOS>SUBSTRUCTURE
     1  CBI      1

