@<TRIPOS>MOLECULE
1qi0_ligand_011
    45    46
SMALL
GAST_HUCK
****
This file was generated by PARSER (from files_GN.cpp)

@<TRIPOS>ATOM
      1 C1          0.6875   41.0475   13.7731 C.3         1 CBI       0.1884
      2 C2          1.9594   41.4185   14.5768 C.3         1 CBI       0.1341
      3 C3          2.7649   40.1402   14.9267 C.3         1 CBI       0.1141
      4 C4          1.8536   39.1132   15.6455 C.3         1 CBI       0.1119
      5 C5          0.5724   38.8248   14.8023 C.3         1 CBI       0.1130
      6 C6         -0.4475   37.8982   15.5307 C.3         1 CBI       0.0730
      7 O2          2.7469   42.3698   13.8539 O.3         1 CBI      -0.3841
      8 O3          3.9033   40.4355   15.7375 O.3         1 CBI      -0.3864
      9 O4          2.5927   37.9118   15.8557 O.3         1 CBI      -0.3865
     10 O5         -0.1036   40.0460   14.4316 O.3         1 CBI      -0.3405
     11 O6         -1.4834   38.6169   16.1983 O.3         1 CBI      -0.3924
     12 C1'        -3.1722   43.8011   11.2363 C.3         1 CBI       0.1854
     13 C2'        -2.8447   42.3021   11.0136 C.3         1 CBI       0.1339
     14 C3'        -2.0588   41.7368   12.2267 C.3         1 CBI       0.1144
     15 C4'        -0.8063   42.6154   12.5070 C.3         1 CBI       0.1184
     16 C5'        -1.2377   44.1042   12.6897 C.3         1 CBI       0.1134
     17 C6'        -0.0474   45.0794   12.8919 C.3         1 CBI       0.0730
     18 O1'        -3.7362   44.3774   10.0633 O.3         1 CBI      -0.3649
     19 O2'        -4.0394   41.5511   10.8142 O.3         1 CBI      -0.3841
     20 O3'        -1.6873   40.3865   11.9781 O.3         1 CBI      -0.3864
     21 O4'        -0.1338   42.2321   13.7226 O.3         1 CBI      -0.3401
     22 O5'        -1.9785   44.5550   11.5358 O.3         1 CBI      -0.3407
     23 O6'         0.8033   44.7192   13.9724 O.3         1 CBI      -0.3924
     24 H1          0.9818   40.6972   12.7806 H           1 CBI       0.0938
     25 H2          1.6649   41.9093   15.5111 H           1 CBI       0.0671
     26 H3          3.1362   39.6953   13.9965 H           1 CBI       0.0648
     27 H4          1.5638   39.5065   16.6240 H           1 CBI       0.0647
     28 H5          0.8867   38.3159   13.8839 H           1 CBI       0.0647
     29 H6          0.0494   37.2634   16.2657 H           1 CBI       0.0584
     30 H7         -0.9280   37.2475   14.8029 H           1 CBI       0.0584
     31 H8          3.5421   41.8926   13.5401 H           1 CBI       0.2101
     32 H9          3.6555   41.2051   16.2957 H           1 CBI       0.2100
     33 H10         2.8455   37.6035   14.9597 H           1 CBI       0.2100
     34 H11        -1.0674   39.4404   16.5307 H           1 CBI       0.2095
     35 H12        -3.8886   43.9177   12.0513 H           1 CBI       0.0935
     36 H13        -2.2279   42.2006   10.1156 H           1 CBI       0.0671
     37 H14        -2.7027   41.7445   13.1128 H           1 CBI       0.0648
     38 H15        -0.1149   42.5571   11.6596 H           1 CBI       0.0651
     39 H16        -1.8803   44.1799   13.5773 H           1 CBI       0.0647
     40 H17        -0.4396   46.0742   13.1036 H           1 CBI       0.0584
     41 H18         0.5472   45.1355   11.9788 H           1 CBI       0.0584
     42 H19        -4.6783   44.1112   10.0684 H           1 CBI       0.2126
     43 H20        -4.3675   41.8069    9.9274 H           1 CBI       0.2101
     44 H21        -2.5241   39.8787   11.9909 H           1 CBI       0.2100
     45 H22         0.2075   44.5374   14.7286 H           1 CBI       0.2095
@<TRIPOS>BOND
     1     1    21   1
     2     1    10   1
     3     1     2   1
     4     2     7   1
     5     2     3   1
     6     3     8   1
     7     3     4   1
     8     4     9   1
     9     4     5   1
    10     5    10   1
    11     5     6   1
    12     6    11   1
    13    21    15   1
    14    15    16   1
    15    15    14   1
    16    14    20   1
    17    14    13   1
    18    13    19   1
    19    13    12   1
    20    12    22   1
    21    12    18   1
    22    22    16   1
    23    16    17   1
    24    17    23   1
    25     1    24   1
    26     2    25   1
    27     3    26   1
    28     4    27   1
    29     5    28   1
    30     6    29   1
    31     6    30   1
    32     7    31   1
    33     8    32   1
    34     9    33   1
    35    11    34   1
    36    12    35   1
    37    13    36   1
    38    14    37   1
    39    15    38   1
    40    16    39   1
    41    17    40   1
    42    17    41   1
    43    18    42   1
    44    19    43   1
    45    20    44   1
    46    23    45   1
@<TRIPOS>SUBSTRUCTURE
     1  CBI      1

