@<TRIPOS>MOLECULE
1r5y_ligand_021
    21    22
SMALL
GAST_HUCK
****
This file was generated by PARSER (from files_GN.cpp)

@<TRIPOS>ATOM
      1 C6         12.2921   19.2210   13.5391 C.ar        1 DQU       0.0312
      2 N4         11.2421   20.0516   13.6663 N.pl3       1 DQU      -0.3412
      3 C1         13.4676   19.6759   12.9096 C.ar        1 DQU      -0.0487
      4 C2         14.5742   18.8201   12.7722 C.ar        1 DQU      -0.0660
      5 C3         14.5110   17.5035   13.2658 C.ar        1 DQU      -0.0076
      6 N3         15.5910   16.6775   13.1425 N.2         1 DQU      -0.3133
      7 C8         15.5586   15.4098   13.6192 C.2         1 DQU       0.2280
      8 N2         16.6400   14.6286   13.4806 N.pl3       1 DQU      -0.2818
      9 N1         14.4347   14.9468   14.2260 N.am        1 DQU      -0.1802
     10 C7         13.3500   15.7064   14.3699 C.2         1 DQU       0.2303
     11 O1         12.3847   15.2067   14.9297 O.2         1 DQU      -0.3873
     12 C4         13.3306   17.0278   13.9003 C.ar        1 DQU       0.0454
     13 C5         12.2227   17.9001   14.0291 C.ar        1 DQU      -0.0345
     14 H1         11.2967   20.9601   13.3295 H           1 DQU       0.1692
     15 H2         10.4243   19.7446   14.0864 H           1 DQU       0.1692
     16 H3         13.5246   20.6327   12.5498 H           1 DQU       0.0536
     17 H4         15.4243   19.1608   12.3159 H           1 DQU       0.0515
     18 H5         17.4320   14.9784   13.0431 H           1 DQU       0.1894
     19 H6         16.6389   13.7154   13.8109 H           1 DQU       0.1894
     20 H7         14.4259   14.0365   14.5680 H           1 DQU       0.2503
     21 H8         11.3640   17.5792   14.4853 H           1 DQU       0.0532
@<TRIPOS>BOND
     1     1     2   1
     2     1     3  ar
     3     1    13  ar
     4     3     4  ar
     5     4     5  ar
     6     5     6   1
     7     5    12  ar
     8     6     7   2
     9     7     8   1
    10     7     9  am
    11     9    10  am
    12    10    11   2
    13    10    12   1
    14    12    13  ar
    15     2    14   1
    16     2    15   1
    17     3    16   1
    18     4    17   1
    19     8    18   1
    20     8    19   1
    21     9    20   1
    22    13    21   1
@<TRIPOS>SUBSTRUCTURE
     1  DQU      1

