@<TRIPOS>MOLECULE
1r5y_ligand_032
    21    22
SMALL
GAST_HUCK
****
This file was generated by PARSER (from files_GN.cpp)

@<TRIPOS>ATOM
      1 C6         16.7012   16.8904   18.9608 C.ar        1 DQU       0.0312
      2 N4         17.7815   17.0674   19.7405 N.pl3       1 DQU      -0.3412
      3 C1         16.8597   16.6142   17.5862 C.ar        1 DQU      -0.0487
      4 C2         15.7329   16.4325   16.7654 C.ar        1 DQU      -0.0660
      5 C3         14.4387   16.5368   17.3122 C.ar        1 DQU      -0.0076
      6 N3         13.3404   16.3644   16.5155 N.2         1 DQU      -0.3133
      7 C8         12.0882   16.4535   17.0268 C.2         1 DQU       0.2280
      8 N2         11.0227   16.2688   16.2324 N.pl3       1 DQU      -0.2818
      9 N1         11.9158   16.7084   18.3510 N.am        1 DQU      -0.1802
     10 C7         12.9464   16.9088   19.1666 C.2         1 DQU       0.2303
     11 O1         12.6893   17.1835   20.3311 O.2         1 DQU      -0.3873
     12 C4         14.2642   16.8212   18.6962 C.ar        1 DQU       0.0454
     13 C5         15.4070   16.9865   19.5138 C.ar        1 DQU      -0.0345
     14 H1         18.6730   16.9993   19.3630 H           1 DQU       0.1692
     15 H2         17.6738   17.2677   20.6840 H           1 DQU       0.1692
     16 H3         17.7958   16.5332   17.1781 H           1 DQU       0.0536
     17 H4         15.8609   16.2247   15.7719 H           1 DQU       0.0515
     18 H5         11.1489   16.0709   15.2908 H           1 DQU       0.1894
     19 H6         10.1256   16.3368   16.5952 H           1 DQU       0.1894
     20 H7         11.0153   16.7387   18.7107 H           1 DQU       0.2503
     21 H8         15.3018   17.1832   20.5139 H           1 DQU       0.0532
@<TRIPOS>BOND
     1     1     2   1
     2     1     3  ar
     3     1    13  ar
     4     3     4  ar
     5     4     5  ar
     6     5     6   1
     7     5    12  ar
     8     6     7   2
     9     7     8   1
    10     7     9  am
    11     9    10  am
    12    10    11   2
    13    10    12   1
    14    12    13  ar
    15     2    14   1
    16     2    15   1
    17     3    16   1
    18     4    17   1
    19     8    18   1
    20     8    19   1
    21     9    20   1
    22    13    21   1
@<TRIPOS>SUBSTRUCTURE
     1  DQU      1

