@<TRIPOS>MOLECULE
1r5y_ligand_037
    21    22
SMALL
GAST_HUCK
****
This file was generated by PARSER (from files_GN.cpp)

@<TRIPOS>ATOM
      1 C6         11.6646   15.5574   15.1814 C.ar        1 DQU       0.0312
      2 N4         10.5853   15.3908   15.9668 N.pl3       1 DQU      -0.3412
      3 C1         12.3783   14.4343   14.7174 C.ar        1 DQU      -0.0487
      4 C2         13.5031   14.6020   13.8893 C.ar        1 DQU      -0.0660
      5 C3         13.9250   15.8954   13.5279 C.ar        1 DQU      -0.0076
      6 N3         15.0102   16.0609   12.7155 N.2         1 DQU      -0.3133
      7 C8         15.4456   17.2973   12.3725 C.2         1 DQU       0.2280
      8 N2         16.5207   17.4337   11.5817 N.pl3       1 DQU      -0.2818
      9 N1         14.7758   18.3913   12.8192 N.am        1 DQU      -0.1802
     10 C7         13.6988   18.2921   13.5942 C.2         1 DQU       0.2303
     11 O1         13.1594   19.3325   13.9408 O.2         1 DQU      -0.3873
     12 C4         13.2176   17.0377   13.9933 C.ar        1 DQU       0.0454
     13 C5         12.0843   16.8541   14.8210 C.ar        1 DQU      -0.0345
     14 H1         10.2939   14.4978   16.2108 H           1 DQU       0.1692
     15 H2         10.0924   16.1629   16.2872 H           1 DQU       0.1692
     16 H3         12.0838   13.4912   14.9822 H           1 DQU       0.0536
     17 H4         14.0111   13.7794   13.5536 H           1 DQU       0.0515
     18 H5         16.9925   16.6475   11.2632 H           1 DQU       0.1894
     19 H6         16.8295   18.3180   11.3293 H           1 DQU       0.1894
     20 H7         15.0895   19.2725   12.5592 H           1 DQU       0.2503
     21 H8         11.5615   17.6638   15.1642 H           1 DQU       0.0532
@<TRIPOS>BOND
     1     1     2   1
     2     1     3  ar
     3     1    13  ar
     4     3     4  ar
     5     4     5  ar
     6     5     6   1
     7     5    12  ar
     8     6     7   2
     9     7     8   1
    10     7     9  am
    11     9    10  am
    12    10    11   2
    13    10    12   1
    14    12    13  ar
    15     2    14   1
    16     2    15   1
    17     3    16   1
    18     4    17   1
    19     8    18   1
    20     8    19   1
    21     9    20   1
    22    13    21   1
@<TRIPOS>SUBSTRUCTURE
     1  DQU      1

