@<TRIPOS>MOLECULE
1r5y_ligand_062
    21    22
SMALL
GAST_HUCK
****
This file was generated by PARSER (from files_GN.cpp)

@<TRIPOS>ATOM
      1 C6         16.4409   16.5343   12.7891 C.ar        1 DQU       0.0312
      2 N4         16.4438   15.2370   13.1447 N.pl3       1 DQU      -0.3412
      3 C1         17.6273   17.1407   12.3304 C.ar        1 DQU      -0.0487
      4 C2         17.6353   18.5014   11.9745 C.ar        1 DQU      -0.0660
      5 C3         16.4562   19.2637   12.0780 C.ar        1 DQU      -0.0076
      6 N3         16.4663   20.5884   11.7434 N.2         1 DQU      -0.3133
      7 C8         15.3444   21.3423   11.8488 C.2         1 DQU       0.2280
      8 N2         15.3761   22.6411   11.5162 N.pl3       1 DQU      -0.2818
      9 N1         14.1925   20.7756   12.2914 N.am        1 DQU      -0.1802
     10 C7         14.1210   19.4881   12.6209 C.2         1 DQU       0.2303
     11 O1         13.0396   19.0669   13.0065 O.2         1 DQU      -0.3873
     12 C4         15.2505   18.6631   12.5351 C.ar        1 DQU       0.0454
     13 C5         15.2554   17.2919   12.8839 C.ar        1 DQU      -0.0345
     14 H1         17.2618   14.7194   13.0852 H           1 DQU       0.1692
     15 H2         15.6306   14.8176   13.4663 H           1 DQU       0.1692
     16 H3         18.4907   16.5969   12.2569 H           1 DQU       0.0536
     17 H4         18.5026   18.9333   11.6463 H           1 DQU       0.0515
     18 H5         16.2007   23.0411   11.1964 H           1 DQU       0.1894
     19 H6         14.5739   23.1821   11.5895 H           1 DQU       0.1894
     20 H7         13.3999   21.3293   12.3765 H           1 DQU       0.2503
     21 H8         14.3976   16.8414   13.2151 H           1 DQU       0.0532
@<TRIPOS>BOND
     1     1     2   1
     2     1     3  ar
     3     1    13  ar
     4     3     4  ar
     5     4     5  ar
     6     5     6   1
     7     5    12  ar
     8     6     7   2
     9     7     8   1
    10     7     9  am
    11     9    10  am
    12    10    11   2
    13    10    12   1
    14    12    13  ar
    15     2    14   1
    16     2    15   1
    17     3    16   1
    18     4    17   1
    19     8    18   1
    20     8    19   1
    21     9    20   1
    22    13    21   1
@<TRIPOS>SUBSTRUCTURE
     1  DQU      1

