@<TRIPOS>MOLECULE
1r5y_ligand_009
    21    22
SMALL
GAST_HUCK
****
This file was generated by PARSER (from files_GN.cpp)

@<TRIPOS>ATOM
      1 C6         18.3521   18.9759   12.8351 C.ar        1 DQU       0.0312
      2 N4         19.2877   19.9414   12.8456 N.pl3       1 DQU      -0.3412
      3 C1         17.6837   18.6504   11.6379 C.ar        1 DQU      -0.0487
      4 C2         16.7054   17.6397   11.6250 C.ar        1 DQU      -0.0660
      5 C3         16.3889   16.9494   12.8099 C.ar        1 DQU      -0.0076
      6 N3         15.4396   15.9668   12.7987 N.2         1 DQU      -0.3133
      7 C8         15.1164   15.2964   13.9312 C.2         1 DQU       0.2280
      8 N2         14.1756   14.3390   13.9034 N.pl3       1 DQU      -0.2818
      9 N1         15.7505   15.5985   15.0940 N.am        1 DQU      -0.1802
     10 C7         16.6849   16.5426   15.1638 C.2         1 DQU       0.2303
     11 O1         17.2015   16.7419   16.2550 O.2         1 DQU      -0.3873
     12 C4         17.0555   17.2694   14.0258 C.ar        1 DQU       0.0454
     13 C5         18.0388   18.2865   14.0244 C.ar        1 DQU      -0.0345
     14 H1         19.5080   20.4152   12.0257 H           1 DQU       0.1692
     15 H2         19.7539   20.1563   13.6691 H           1 DQU       0.1692
     16 H3         17.9063   19.1462   10.7711 H           1 DQU       0.0536
     17 H4         16.2267   17.4096   10.7505 H           1 DQU       0.0515
     18 H5         13.7271   14.1208   13.0723 H           1 DQU       0.1894
     19 H6         13.9840   13.8271   14.7029 H           1 DQU       0.1894
     20 H7         15.5133   15.1075   15.8968 H           1 DQU       0.2503
     21 H8         18.5295   18.5303   14.8897 H           1 DQU       0.0532
@<TRIPOS>BOND
     1     1     2   1
     2     1     3  ar
     3     1    13  ar
     4     3     4  ar
     5     4     5  ar
     6     5     6   1
     7     5    12  ar
     8     6     7   2
     9     7     8   1
    10     7     9  am
    11     9    10  am
    12    10    11   2
    13    10    12   1
    14    12    13  ar
    15     2    14   1
    16     2    15   1
    17     3    16   1
    18     4    17   1
    19     8    18   1
    20     8    19   1
    21     9    20   1
    22    13    21   1
@<TRIPOS>SUBSTRUCTURE
     1  DQU      1

