@<TRIPOS>MOLECULE
1r5y_ligand_024
    21    22
SMALL
GAST_HUCK
****
This file was generated by PARSER (from files_GN.cpp)

@<TRIPOS>ATOM
      1 C6         15.8448   20.5525    9.4743 C.ar        1 DQU       0.0312
      2 N4         15.2164   21.3326    8.5762 N.pl3       1 DQU      -0.3412
      3 C1         15.6223   19.1616    9.4720 C.ar        1 DQU      -0.0487
      4 C2         16.2817   18.3375   10.4017 C.ar        1 DQU      -0.0660
      5 C3         17.1638   18.9018   11.3428 C.ar        1 DQU      -0.0076
      6 N3         17.8004   18.1011   12.2483 N.2         1 DQU      -0.3133
      7 C8         18.6580   18.6248   13.1572 C.2         1 DQU       0.2280
      8 N2         19.2804   17.8340   14.0417 N.pl3       1 DQU      -0.2818
      9 N1         18.8916   19.9614   13.1711 N.am        1 DQU      -0.1802
     10 C7         18.2964   20.7909   12.3169 C.2         1 DQU       0.2303
     11 O1         18.5684   21.9795   12.4054 O.2         1 DQU      -0.3873
     12 C4         17.3989   20.3049   11.3561 C.ar        1 DQU       0.0454
     13 C5         16.7300   21.1215   10.4134 C.ar        1 DQU      -0.0345
     14 H1         14.6200   20.9363    7.9207 H           1 DQU       0.1692
     15 H2         15.3673   22.2912    8.5724 H           1 DQU       0.1692
     16 H3         14.9810   18.7422    8.7938 H           1 DQU       0.0536
     17 H4         16.1181   17.3272   10.3892 H           1 DQU       0.0515
     18 H5         19.1237   16.8769   14.0395 H           1 DQU       0.1894
     19 H6         19.8972   18.2257   14.6792 H           1 DQU       0.1894
     20 H7         19.5179   20.3131   13.8268 H           1 DQU       0.2503
     21 H8         16.8879   22.1326   10.4056 H           1 DQU       0.0532
@<TRIPOS>BOND
     1     1     2   1
     2     1     3  ar
     3     1    13  ar
     4     3     4  ar
     5     4     5  ar
     6     5     6   1
     7     5    12  ar
     8     6     7   2
     9     7     8   1
    10     7     9  am
    11     9    10  am
    12    10    11   2
    13    10    12   1
    14    12    13  ar
    15     2    14   1
    16     2    15   1
    17     3    16   1
    18     4    17   1
    19     8    18   1
    20     8    19   1
    21     9    20   1
    22    13    21   1
@<TRIPOS>SUBSTRUCTURE
     1  DQU      1

