@<TRIPOS>MOLECULE
1r5y_ligand_034
    21    22
SMALL
GAST_HUCK
****
This file was generated by PARSER (from files_GN.cpp)

@<TRIPOS>ATOM
      1 C6         14.4957   20.5950   15.2952 C.ar        1 DQU       0.0312
      2 N4         14.4336   21.9330   15.4179 N.pl3       1 DQU      -0.3412
      3 C1         13.3995   19.8004   15.6864 C.ar        1 DQU      -0.0487
      4 C2         13.4579   18.4008   15.5603 C.ar        1 DQU      -0.0660
      5 C3         14.6143   17.7882   15.0405 C.ar        1 DQU      -0.0076
      6 N3         14.6722   16.4287   14.9158 N.2         1 DQU      -0.3133
      7 C8         15.7765   15.8220   14.4176 C.2         1 DQU       0.2280
      8 N2         15.8079   14.4887   14.2943 N.pl3       1 DQU      -0.2818
      9 N1         16.8425   16.5711   14.0351 N.am        1 DQU      -0.1802
     10 C7         16.8423   17.8980   14.1346 C.2         1 DQU       0.2303
     11 O1         17.8469   18.4874   13.7633 O.2         1 DQU      -0.3873
     12 C4         15.7278   18.5783   14.6426 C.ar        1 DQU       0.0454
     13 C5         15.6560   19.9849   14.7765 C.ar        1 DQU      -0.0345
     14 H1         13.6342   22.3528   15.7739 H           1 DQU       0.1692
     15 H2         15.1864   22.4824   15.1478 H           1 DQU       0.1692
     16 H3         12.5549   20.2362   16.0655 H           1 DQU       0.0536
     17 H4         12.6564   17.8330   15.8460 H           1 DQU       0.0515
     18 H5         15.0568   13.9475   14.5819 H           1 DQU       0.1894
     19 H6         16.5997   14.0472   13.9433 H           1 DQU       0.1894
     20 H7         17.6307   16.1230   13.6851 H           1 DQU       0.2503
     21 H8         16.4470   20.5701   14.4942 H           1 DQU       0.0532
@<TRIPOS>BOND
     1     1     2   1
     2     1     3  ar
     3     1    13  ar
     4     3     4  ar
     5     4     5  ar
     6     5     6   1
     7     5    12  ar
     8     6     7   2
     9     7     8   1
    10     7     9  am
    11     9    10  am
    12    10    11   2
    13    10    12   1
    14    12    13  ar
    15     2    14   1
    16     2    15   1
    17     3    16   1
    18     4    17   1
    19     8    18   1
    20     8    19   1
    21     9    20   1
    22    13    21   1
@<TRIPOS>SUBSTRUCTURE
     1  DQU      1

