@<TRIPOS>MOLECULE
1r5y_ligand_065
    21    22
SMALL
GAST_HUCK
****
This file was generated by PARSER (from files_GN.cpp)

@<TRIPOS>ATOM
      1 C6         18.2101   19.5295   11.0271 C.ar        1 DQU       0.0312
      2 N4         18.4670   20.7508   10.5249 N.pl3       1 DQU      -0.3412
      3 C1         19.0081   18.4309   10.6505 C.ar        1 DQU      -0.0487
      4 C2         18.7462   17.1523   11.1745 C.ar        1 DQU      -0.0660
      5 C3         17.6841   16.9662   12.0794 C.ar        1 DQU      -0.0076
      6 N3         17.4211   15.7240   12.5806 N.2         1 DQU      -0.3133
      7 C8         16.4085   15.5265   13.4599 C.2         1 DQU       0.2280
      8 N2         16.1719   14.2999   13.9468 N.pl3       1 DQU      -0.2818
      9 N1         15.6282   16.5732   13.8327 N.am        1 DQU      -0.1802
     10 C7         15.8305   17.8021   13.3687 C.2         1 DQU       0.2303
     11 O1         15.0782   18.6806   13.7646 O.2         1 DQU      -0.3873
     12 C4         16.8695   18.0658   12.4663 C.ar        1 DQU       0.0454
     13 C5         17.1443   19.3463   11.9317 C.ar        1 DQU      -0.0345
     14 H1         19.2018   20.8772    9.9039 H           1 DQU       0.1692
     15 H2         17.9197   21.5090   10.7840 H           1 DQU       0.1692
     16 H3         19.7833   18.5564    9.9943 H           1 DQU       0.0536
     17 H4         19.3323   16.3618   10.8951 H           1 DQU       0.0515
     18 H5         16.7349   13.5546   13.6890 H           1 DQU       0.1894
     19 H6         15.4482   14.1479   14.5745 H           1 DQU       0.1894
     20 H7         14.9019   16.4165   14.4568 H           1 DQU       0.2503
     21 H8         16.5700   20.1501   12.1998 H           1 DQU       0.0532
@<TRIPOS>BOND
     1     1     2   1
     2     1     3  ar
     3     1    13  ar
     4     3     4  ar
     5     4     5  ar
     6     5     6   1
     7     5    12  ar
     8     6     7   2
     9     7     8   1
    10     7     9  am
    11     9    10  am
    12    10    11   2
    13    10    12   1
    14    12    13  ar
    15     2    14   1
    16     2    15   1
    17     3    16   1
    18     4    17   1
    19     8    18   1
    20     8    19   1
    21     9    20   1
    22    13    21   1
@<TRIPOS>SUBSTRUCTURE
     1  DQU      1

