@<TRIPOS>MOLECULE
1r5y_ligand_041
    21    22
SMALL
GAST_HUCK
****
This file was generated by PARSER (from files_GN.cpp)

@<TRIPOS>ATOM
      1 C6         14.0681   15.7036   17.5878 C.ar        1 DQU       0.0312
      2 N4         15.3682   15.3826   17.7094 N.pl3       1 DQU      -0.3412
      3 C1         13.4211   16.4315   18.6072 C.ar        1 DQU      -0.0487
      4 C2         12.0558   16.7528   18.4919 C.ar        1 DQU      -0.0660
      5 C3         11.3321   16.3491   17.3533 C.ar        1 DQU      -0.0076
      6 N3         10.0016   16.6359   17.2540 N.2         1 DQU      -0.3133
      7 C8          9.2837   16.2468   16.1738 C.2         1 DQU       0.2280
      8 N2          7.9763   16.5334   16.1002 N.pl3       1 DQU      -0.2818
      9 N1          9.8932   15.5730   15.1658 N.am        1 DQU      -0.1802
     10 C7         11.1879   15.2669   15.2080 C.2         1 DQU       0.2303
     11 O1         11.6607   14.6742   14.2495 O.2         1 DQU      -0.3873
     12 C4         11.9742   15.6270   16.3101 C.ar        1 DQU       0.0454
     13 C5         13.3473   15.3109   16.4408 C.ar        1 DQU      -0.0345
     14 H1         15.8636   15.6438   18.5003 H           1 DQU       0.1692
     15 H2         15.8049   14.8667   17.0147 H           1 DQU       0.1692
     16 H3         13.9387   16.7285   19.4409 H           1 DQU       0.0536
     17 H4         11.5932   17.2733   19.2427 H           1 DQU       0.0515
     18 H5          7.5482   17.0417   16.8076 H           1 DQU       0.1894
     19 H6          7.4575   16.2463   15.3334 H           1 DQU       0.1894
     20 H7          9.3649   15.3162   14.3903 H           1 DQU       0.2503
     21 H8         13.8270   14.7866   15.7045 H           1 DQU       0.0532
@<TRIPOS>BOND
     1     1     2   1
     2     1     3  ar
     3     1    13  ar
     4     3     4  ar
     5     4     5  ar
     6     5     6   1
     7     5    12  ar
     8     6     7   2
     9     7     8   1
    10     7     9  am
    11     9    10  am
    12    10    11   2
    13    10    12   1
    14    12    13  ar
    15     2    14   1
    16     2    15   1
    17     3    16   1
    18     4    17   1
    19     8    18   1
    20     8    19   1
    21     9    20   1
    22    13    21   1
@<TRIPOS>SUBSTRUCTURE
     1  DQU      1

