@<TRIPOS>MOLECULE
1r5y_ligand_060
    21    22
SMALL
GAST_HUCK
****
This file was generated by PARSER (from files_GN.cpp)

@<TRIPOS>ATOM
      1 C6         15.0846   15.2538   16.5442 C.ar        1 DQU       0.0312
      2 N4         15.5710   14.5409   17.5766 N.pl3       1 DQU      -0.3412
      3 C1         13.7966   14.9794   16.0427 C.ar        1 DQU      -0.0487
      4 C2         13.2818   15.7222   14.9652 C.ar        1 DQU      -0.0660
      5 C3         14.0536   16.7460   14.3838 C.ar        1 DQU      -0.0076
      6 N3         13.5547   17.4693   13.3368 N.2         1 DQU      -0.3133
      7 C8         14.2830   18.4585   12.7641 C.2         1 DQU       0.2280
      8 N2         13.7744   19.1585   11.7383 N.pl3       1 DQU      -0.2818
      9 N1         15.5259   18.7375   13.2344 N.am        1 DQU      -0.1802
     10 C7         16.0620   18.0674   14.2519 C.2         1 DQU       0.2303
     11 O1         17.1872   18.3901   14.6044 O.2         1 DQU      -0.3873
     12 C4         15.3548   17.0344   14.8802 C.ar        1 DQU       0.0454
     13 C5         15.8602   16.2786   15.9644 C.ar        1 DQU      -0.0345
     14 H1         15.0357   13.8371   17.9766 H           1 DQU       0.1692
     15 H2         16.4567   14.7297   17.9249 H           1 DQU       0.1692
     16 H3         13.2274   14.2372   16.4589 H           1 DQU       0.0536
     17 H4         12.3457   15.5147   14.6087 H           1 DQU       0.0515
     18 H5         12.8858   18.9561   11.4055 H           1 DQU       0.1894
     19 H6         14.2941   19.8686   11.3293 H           1 DQU       0.1894
     20 H7         16.0379   19.4483   12.8169 H           1 DQU       0.2503
     21 H8         16.7946   16.4716   16.3356 H           1 DQU       0.0532
@<TRIPOS>BOND
     1     1     2   1
     2     1     3  ar
     3     1    13  ar
     4     3     4  ar
     5     4     5  ar
     6     5     6   1
     7     5    12  ar
     8     6     7   2
     9     7     8   1
    10     7     9  am
    11     9    10  am
    12    10    11   2
    13    10    12   1
    14    12    13  ar
    15     2    14   1
    16     2    15   1
    17     3    16   1
    18     4    17   1
    19     8    18   1
    20     8    19   1
    21     9    20   1
    22    13    21   1
@<TRIPOS>SUBSTRUCTURE
     1  DQU      1

