@<TRIPOS>MOLECULE
1r5y_ligand_013
    21    22
SMALL
GAST_HUCK
****
This file was generated by PARSER (from files_GN.cpp)

@<TRIPOS>ATOM
      1 C6         17.5492   18.6660   14.5564 C.ar        1 DQU       0.0312
      2 N4         18.3585   19.6729   14.9240 N.pl3       1 DQU      -0.3412
      3 C1         17.9598   17.7546   13.5637 C.ar        1 DQU      -0.0487
      4 C2         17.1073   16.7074   13.1716 C.ar        1 DQU      -0.0660
      5 C3         15.8416   16.5666   13.7704 C.ar        1 DQU      -0.0076
      6 N3         15.0091   15.5559   13.3796 N.2         1 DQU      -0.3133
      7 C8         13.8012   15.3852   13.9694 C.2         1 DQU       0.2280
      8 N2         13.0122   14.3694   13.5968 N.pl3       1 DQU      -0.2818
      9 N1         13.3999   16.2371   14.9472 N.am        1 DQU      -0.1802
     10 C7         14.1598   17.2500   15.3527 C.2         1 DQU       0.2303
     11 O1         13.7091   17.9717   16.2326 O.2         1 DQU      -0.3873
     12 C4         15.4286   17.4584   14.7962 C.ar        1 DQU       0.0454
     13 C5         16.2911   18.5096   15.1782 C.ar        1 DQU      -0.0345
     14 H1         19.2458   19.7605   14.5453 H           1 DQU       0.1692
     15 H2         18.0829   20.2623   15.6479 H           1 DQU       0.1692
     16 H3         18.8723   17.8593   13.1160 H           1 DQU       0.0536
     17 H4         17.4068   16.0618   12.4396 H           1 DQU       0.0515
     18 H5         13.3021   13.7619   12.9007 H           1 DQU       0.1894
     19 H6         12.1356   14.2591   14.0042 H           1 DQU       0.1894
     20 H7         12.5252   16.1115   15.3462 H           1 DQU       0.2503
     21 H8         16.0055   19.1755   15.9015 H           1 DQU       0.0532
@<TRIPOS>BOND
     1     1     2   1
     2     1     3  ar
     3     1    13  ar
     4     3     4  ar
     5     4     5  ar
     6     5     6   1
     7     5    12  ar
     8     6     7   2
     9     7     8   1
    10     7     9  am
    11     9    10  am
    12    10    11   2
    13    10    12   1
    14    12    13  ar
    15     2    14   1
    16     2    15   1
    17     3    16   1
    18     4    17   1
    19     8    18   1
    20     8    19   1
    21     9    20   1
    22    13    21   1
@<TRIPOS>SUBSTRUCTURE
     1  DQU      1

