@<TRIPOS>MOLECULE
1r5y_ligand_002
    21    22
SMALL
GAST_HUCK
****
This file was generated by PARSER (from files_GN.cpp)

@<TRIPOS>ATOM
      1 C6         15.3792   14.7336   18.8177 C.ar        1 DQU       0.0312
      2 N4         14.4926   13.8691   18.2905 N.pl3       1 DQU      -0.3412
      3 C1         15.3265   15.0506   20.1882 C.ar        1 DQU      -0.0487
      4 C2         16.2593   15.9401   20.7525 C.ar        1 DQU      -0.0660
      5 C3         17.2598   16.5150   19.9455 C.ar        1 DQU      -0.0076
      6 N3         18.1837   17.3659   20.4898 N.2         1 DQU      -0.3133
      7 C8         19.1909   17.8694   19.7328 C.2         1 DQU       0.2280
      8 N2         20.1211   18.6826   20.2536 N.pl3       1 DQU      -0.2818
      9 N1         19.2742   17.5404   18.4206 N.am        1 DQU      -0.1802
     10 C7         18.3819   16.7546   17.8286 C.2         1 DQU       0.2303
     11 O1         18.5282   16.5511   16.6323 O.2         1 DQU      -0.3873
     12 C4         17.3330   16.1897   18.5620 C.ar        1 DQU       0.0454
     13 C5         16.3734   15.3116   18.0065 C.ar        1 DQU      -0.0345
     14 H1         13.8053   13.4763   18.8522 H           1 DQU       0.1692
     15 H2         14.5538   13.6140   17.3553 H           1 DQU       0.1692
     16 H3         14.6154   14.6217   20.7836 H           1 DQU       0.0536
     17 H4         16.2168   16.1469   21.7532 H           1 DQU       0.0515
     18 H5         20.0500   18.9934   21.1682 H           1 DQU       0.1894
     19 H6         20.8689   18.9556   19.7006 H           1 DQU       0.1894
     20 H7         20.0165   17.8924   17.9069 H           1 DQU       0.2503
     21 H8         16.3950   15.0850   17.0107 H           1 DQU       0.0532
@<TRIPOS>BOND
     1     1     2   1
     2     1     3  ar
     3     1    13  ar
     4     3     4  ar
     5     4     5  ar
     6     5     6   1
     7     5    12  ar
     8     6     7   2
     9     7     8   1
    10     7     9  am
    11     9    10  am
    12    10    11   2
    13    10    12   1
    14    12    13  ar
    15     2    14   1
    16     2    15   1
    17     3    16   1
    18     4    17   1
    19     8    18   1
    20     8    19   1
    21     9    20   1
    22    13    21   1
@<TRIPOS>SUBSTRUCTURE
     1  DQU      1

