@<TRIPOS>MOLECULE
1r5y_ligand_030
    21    22
SMALL
GAST_HUCK
****
This file was generated by PARSER (from files_GN.cpp)

@<TRIPOS>ATOM
      1 C6         14.0141   17.3984   16.6131 C.ar        1 DQU       0.0312
      2 N4         14.4139   18.4516   15.8774 N.pl3       1 DQU      -0.3412
      3 C1         12.6414   17.1776   16.8411 C.ar        1 DQU      -0.0487
      4 C2         12.2168   16.0761   17.6030 C.ar        1 DQU      -0.0660
      5 C3         13.1634   15.1866   18.1440 C.ar        1 DQU      -0.0076
      6 N3         12.7511   14.1207   18.8954 N.2         1 DQU      -0.3133
      7 C8         13.6517   13.2567   19.4296 C.2         1 DQU       0.2280
      8 N2         13.2312   12.2120   20.1546 N.pl3       1 DQU      -0.2818
      9 N1         14.9799   13.4465   19.2098 N.am        1 DQU      -0.1802
     10 C7         15.4354   14.4728   18.4938 C.2         1 DQU       0.2303
     11 O1         16.6484   14.5774   18.3734 O.2         1 DQU      -0.3873
     12 C4         14.5541   15.3968   17.9258 C.ar        1 DQU       0.0454
     13 C5         14.9670   16.5112   17.1571 C.ar        1 DQU      -0.0345
     14 H1         13.7580   19.0614   15.5039 H           1 DQU       0.1692
     15 H2         15.3590   18.6059   15.7213 H           1 DQU       0.1692
     16 H3         11.9451   17.8150   16.4491 H           1 DQU       0.0536
     17 H4         11.2175   15.9233   17.7605 H           1 DQU       0.0515
     18 H5         12.2844   12.0699   20.3026 H           1 DQU       0.1894
     19 H6         13.8733   11.5622   20.4792 H           1 DQU       0.1894
     20 H7         15.6151   12.8222   19.5971 H           1 DQU       0.2503
     21 H8         15.9622   16.6794   16.9861 H           1 DQU       0.0532
@<TRIPOS>BOND
     1     1     2   1
     2     1     3  ar
     3     1    13  ar
     4     3     4  ar
     5     4     5  ar
     6     5     6   1
     7     5    12  ar
     8     6     7   2
     9     7     8   1
    10     7     9  am
    11     9    10  am
    12    10    11   2
    13    10    12   1
    14    12    13  ar
    15     2    14   1
    16     2    15   1
    17     3    16   1
    18     4    17   1
    19     8    18   1
    20     8    19   1
    21     9    20   1
    22    13    21   1
@<TRIPOS>SUBSTRUCTURE
     1  DQU      1

