@<TRIPOS>MOLECULE
1r5y_ligand_059
    21    22
SMALL
GAST_HUCK
****
This file was generated by PARSER (from files_GN.cpp)

@<TRIPOS>ATOM
      1 C6         16.1992   22.4018    9.7173 C.ar        1 DQU       0.0312
      2 N4         16.0173   23.0882    8.5749 N.pl3       1 DQU      -0.3412
      3 C1         15.0950   21.8216   10.3724 C.ar        1 DQU      -0.0487
      4 C2         15.2771   21.1017   11.5667 C.ar        1 DQU      -0.0660
      5 C3         16.5670   20.9580   12.1133 C.ar        1 DQU      -0.0076
      6 N3         16.7459   20.2585   13.2745 N.2         1 DQU      -0.3133
      7 C8         17.9812   20.1112   13.8128 C.2         1 DQU       0.2280
      8 N2         18.1622   19.4261   14.9505 N.pl3       1 DQU      -0.2818
      9 N1         19.0553   20.6632   13.1956 N.am        1 DQU      -0.1802
     10 C7         18.9425   21.3544   12.0646 C.2         1 DQU       0.2303
     11 O1         19.9681   21.8139   11.5833 O.2         1 DQU      -0.3873
     12 C4         17.6906   21.5390   11.4619 C.ar        1 DQU       0.0454
     13 C5         17.4924   22.2605   10.2611 C.ar        1 DQU      -0.0345
     14 H1         15.1267   23.1844    8.2019 H           1 DQU       0.1692
     15 H2         16.7755   23.4888    8.1208 H           1 DQU       0.1692
     16 H3         14.1536   21.9198    9.9833 H           1 DQU       0.0536
     17 H4         14.4681   20.6851   12.0343 H           1 DQU       0.0515
     18 H5         17.4077   19.0233   15.4085 H           1 DQU       0.1894
     19 H6         19.0591   19.3378   15.3110 H           1 DQU       0.1894
     20 H7         19.9284   20.5433   13.6027 H           1 DQU       0.2503
     21 H8         18.2890   22.6849    9.7788 H           1 DQU       0.0532
@<TRIPOS>BOND
     1     1     2   1
     2     1     3  ar
     3     1    13  ar
     4     3     4  ar
     5     4     5  ar
     6     5     6   1
     7     5    12  ar
     8     6     7   2
     9     7     8   1
    10     7     9  am
    11     9    10  am
    12    10    11   2
    13    10    12   1
    14    12    13  ar
    15     2    14   1
    16     2    15   1
    17     3    16   1
    18     4    17   1
    19     8    18   1
    20     8    19   1
    21     9    20   1
    22    13    21   1
@<TRIPOS>SUBSTRUCTURE
     1  DQU      1

