@<TRIPOS>MOLECULE
1r5y_ligand_048
    21    22
SMALL
GAST_HUCK
****
This file was generated by PARSER (from files_GN.cpp)

@<TRIPOS>ATOM
      1 C6         14.6406   20.4576   12.4372 C.ar        1 DQU       0.0312
      2 N4         14.7033   21.7902   12.2628 N.pl3       1 DQU      -0.3412
      3 C1         15.4406   19.6064   11.6495 C.ar        1 DQU      -0.0487
      4 C2         15.3834   18.2129   11.8313 C.ar        1 DQU      -0.0660
      5 C3         14.5226   17.6624   12.7991 C.ar        1 DQU      -0.0076
      6 N3         14.4582   16.3064   12.9667 N.2         1 DQU      -0.3133
      7 C8         13.6408   15.7604   13.9011 C.2         1 DQU       0.2280
      8 N2         13.5966   14.4301   14.0586 N.pl3       1 DQU      -0.2818
      9 N1         12.8647   16.5680   14.6712 N.am        1 DQU      -0.1802
     10 C7         12.8790   17.8929   14.5461 C.2         1 DQU       0.2303
     11 O1         12.1431   18.5347   15.2807 O.2         1 DQU      -0.3873
     12 C4         13.7095   18.5113   13.6012 C.ar        1 DQU       0.0454
     13 C5         13.7781   19.9108   13.4092 C.ar        1 DQU      -0.0345
     14 H1         15.2991   22.1664   11.5957 H           1 DQU       0.1692
     15 H2         14.1559   22.3788   12.8061 H           1 DQU       0.1692
     16 H3         16.0680   19.9957   10.9414 H           1 DQU       0.0536
     17 H4         15.9652   17.6025   11.2513 H           1 DQU       0.0515
     18 H5         14.1529   13.8568   13.5081 H           1 DQU       0.1894
     19 H6         13.0104   14.0370   14.7247 H           1 DQU       0.1894
     20 H7         12.2793   16.1641   15.3315 H           1 DQU       0.2503
     21 H8         13.2016   20.5376   13.9778 H           1 DQU       0.0532
@<TRIPOS>BOND
     1     1     2   1
     2     1     3  ar
     3     1    13  ar
     4     3     4  ar
     5     4     5  ar
     6     5     6   1
     7     5    12  ar
     8     6     7   2
     9     7     8   1
    10     7     9  am
    11     9    10  am
    12    10    11   2
    13    10    12   1
    14    12    13  ar
    15     2    14   1
    16     2    15   1
    17     3    16   1
    18     4    17   1
    19     8    18   1
    20     8    19   1
    21     9    20   1
    22    13    21   1
@<TRIPOS>SUBSTRUCTURE
     1  DQU      1

