@<TRIPOS>MOLECULE
1r5y_ligand_035
    21    22
SMALL
GAST_HUCK
****
This file was generated by PARSER (from files_GN.cpp)

@<TRIPOS>ATOM
      1 C6         18.9527   17.3270   12.2742 C.ar        1 DQU       0.0312
      2 N4         19.5696   17.3457   11.0791 N.pl3       1 DQU      -0.3412
      3 C1         19.6024   17.8458   13.4116 C.ar        1 DQU      -0.0487
      4 C2         18.9613   17.8312   14.6637 C.ar        1 DQU      -0.0660
      5 C3         17.6648   17.2965   14.7842 C.ar        1 DQU      -0.0076
      6 N3         17.0319   17.2990   15.9953 N.2         1 DQU      -0.3133
      7 C8         15.7792   16.7983   16.1279 C.2         1 DQU       0.2280
      8 N2         15.1712   16.8232   17.3233 N.pl3       1 DQU      -0.2818
      9 N1         15.1445   16.2792   15.0446 N.am        1 DQU      -0.1802
     10 C7         15.7117   16.2514   13.8409 C.2         1 DQU       0.2303
     11 O1         15.0727   15.7567   12.9232 O.2         1 DQU      -0.3873
     12 C4         16.9993   16.7660   13.6450 C.ar        1 DQU       0.0454
     13 C5         17.6543   16.7910   12.3914 C.ar        1 DQU      -0.0345
     14 H1         20.4629   17.7160   10.9975 H           1 DQU       0.1692
     15 H2         19.1230   16.9879   10.2954 H           1 DQU       0.1692
     16 H3         20.5426   18.2401   13.3317 H           1 DQU       0.0536
     17 H4         19.4396   18.2120   15.4836 H           1 DQU       0.0515
     18 H5         15.6241   17.2058   18.0917 H           1 DQU       0.1894
     19 H6         14.2735   16.4680   17.4195 H           1 DQU       0.1894
     20 H7         14.2492   15.9204   15.1524 H           1 DQU       0.2503
     21 H8         17.1862   16.4229   11.5594 H           1 DQU       0.0532
@<TRIPOS>BOND
     1     1     2   1
     2     1     3  ar
     3     1    13  ar
     4     3     4  ar
     5     4     5  ar
     6     5     6   1
     7     5    12  ar
     8     6     7   2
     9     7     8   1
    10     7     9  am
    11     9    10  am
    12    10    11   2
    13    10    12   1
    14    12    13  ar
    15     2    14   1
    16     2    15   1
    17     3    16   1
    18     4    17   1
    19     8    18   1
    20     8    19   1
    21     9    20   1
    22    13    21   1
@<TRIPOS>SUBSTRUCTURE
     1  DQU      1

