@<TRIPOS>MOLECULE
1r5y_ligand_042
    21    22
SMALL
GAST_HUCK
****
This file was generated by PARSER (from files_GN.cpp)

@<TRIPOS>ATOM
      1 C6         15.0570   15.1923   17.1411 C.ar        1 DQU       0.0312
      2 N4         15.8157   14.3074   17.8125 N.pl3       1 DQU      -0.3412
      3 C1         15.4946   16.5239   16.9892 C.ar        1 DQU      -0.0487
      4 C2         14.7162   17.4494   16.2706 C.ar        1 DQU      -0.0660
      5 C3         13.4894   17.0504   15.7065 C.ar        1 DQU      -0.0076
      6 N3         12.7267   17.9494   15.0155 N.2         1 DQU      -0.3133
      7 C8         11.5440   17.5818   14.4644 C.2         1 DQU       0.2280
      8 N2         10.8104   18.4810   13.7935 N.pl3       1 DQU      -0.2818
      9 N1         11.1066   16.3032   14.6008 N.am        1 DQU      -0.1802
     10 C7         11.8048   15.3874   15.2676 C.2         1 DQU       0.2303
     11 O1         11.3288   14.2639   15.3454 O.2         1 DQU      -0.3873
     12 C4         13.0340   15.7121   15.8557 C.ar        1 DQU       0.0454
     13 C5         13.8282   14.7910   16.5774 C.ar        1 DQU      -0.0345
     14 H1         16.6504   14.5940   18.2138 H           1 DQU       0.1692
     15 H2         15.5583   13.3718   17.8540 H           1 DQU       0.1692
     16 H3         16.3872   16.8235   17.3896 H           1 DQU       0.0536
     17 H4         15.0466   18.4118   16.1592 H           1 DQU       0.0515
     18 H5         11.1225   19.3956   13.7100 H           1 DQU       0.1894
     19 H6          9.9623   18.2215   13.4013 H           1 DQU       0.1894
     20 H7         10.2577   16.0512   14.2038 H           1 DQU       0.2503
     21 H8         13.5100   13.8266   16.7018 H           1 DQU       0.0532
@<TRIPOS>BOND
     1     1     2   1
     2     1     3  ar
     3     1    13  ar
     4     3     4  ar
     5     4     5  ar
     6     5     6   1
     7     5    12  ar
     8     6     7   2
     9     7     8   1
    10     7     9  am
    11     9    10  am
    12    10    11   2
    13    10    12   1
    14    12    13  ar
    15     2    14   1
    16     2    15   1
    17     3    16   1
    18     4    17   1
    19     8    18   1
    20     8    19   1
    21     9    20   1
    22    13    21   1
@<TRIPOS>SUBSTRUCTURE
     1  DQU      1

