@<TRIPOS>MOLECULE
1r5y_ligand_016
    21    22
SMALL
GAST_HUCK
****
This file was generated by PARSER (from files_GN.cpp)

@<TRIPOS>ATOM
      1 C6         15.1301   18.9122   11.7789 C.ar        1 DQU       0.0312
      2 N4         15.8516   19.7482   11.0104 N.pl3       1 DQU      -0.3412
      3 C1         13.8200   19.2614   12.1620 C.ar        1 DQU      -0.0487
      4 C2         13.0580   18.3901   12.9608 C.ar        1 DQU      -0.0660
      5 C3         13.6062   17.1656   13.3874 C.ar        1 DQU      -0.0076
      6 N3         12.8674   16.3192   14.1662 N.2         1 DQU      -0.3133
      7 C8         13.3818   15.1364   14.5818 C.2         1 DQU       0.2280
      8 N2         12.6700   14.2977   15.3455 N.pl3       1 DQU      -0.2818
      9 N1         14.6426   14.7851   14.2262 N.am        1 DQU      -0.1802
     10 C7         15.4072   15.5677   13.4710 C.2         1 DQU       0.2303
     11 O1         16.5120   15.1434   13.1647 O.2         1 DQU      -0.3873
     12 C4         14.9298   16.8021   13.0110 C.ar        1 DQU       0.0454
     13 C5         15.6822   17.6856   12.2021 C.ar        1 DQU      -0.0345
     14 H1         15.4714   20.5919   10.7184 H           1 DQU       0.1692
     15 H2         16.7539   19.5096   10.7453 H           1 DQU       0.1692
     16 H3         13.4161   20.1521   11.8637 H           1 DQU       0.0536
     17 H4         12.1076   18.6538   13.2322 H           1 DQU       0.0515
     18 H5         11.7646   14.5190   15.6168 H           1 DQU       0.1894
     19 H6         13.0844   13.4700   15.6357 H           1 DQU       0.1894
     20 H7         14.9860   13.9333   14.5397 H           1 DQU       0.2503
     21 H8         16.6351   17.4403   11.9195 H           1 DQU       0.0532
@<TRIPOS>BOND
     1     1     2   1
     2     1     3  ar
     3     1    13  ar
     4     3     4  ar
     5     4     5  ar
     6     5     6   1
     7     5    12  ar
     8     6     7   2
     9     7     8   1
    10     7     9  am
    11     9    10  am
    12    10    11   2
    13    10    12   1
    14    12    13  ar
    15     2    14   1
    16     2    15   1
    17     3    16   1
    18     4    17   1
    19     8    18   1
    20     8    19   1
    21     9    20   1
    22    13    21   1
@<TRIPOS>SUBSTRUCTURE
     1  DQU      1

