@<TRIPOS>MOLECULE
1r5y_ligand_010
    21    22
SMALL
GAST_HUCK
****
This file was generated by PARSER (from files_GN.cpp)

@<TRIPOS>ATOM
      1 C6         17.5841   16.4922   22.8699 C.ar        1 DQU       0.0312
      2 N4         18.1480   16.3623   24.0828 N.pl3       1 DQU      -0.3412
      3 C1         16.2093   16.7769   22.7569 C.ar        1 DQU      -0.0487
      4 C2         15.6190   16.9227   21.4886 C.ar        1 DQU      -0.0660
      5 C3         16.4046   16.8029   20.3262 C.ar        1 DQU      -0.0076
      6 N3         15.8414   16.9825   19.0931 N.2         1 DQU      -0.3133
      7 C8         16.5836   16.8683   17.9648 C.2         1 DQU       0.2280
      8 N2         16.0127   17.0554   16.7663 N.pl3       1 DQU      -0.2818
      9 N1         17.9046   16.5692   18.0562 N.am        1 DQU      -0.1802
     10 C7         18.5073   16.3924   19.2289 C.2         1 DQU       0.2303
     11 O1         19.7032   16.1398   19.2141 O.2         1 DQU      -0.3873
     12 C4         17.7917   16.5072   20.4274 C.ar        1 DQU       0.0454
     13 C5         18.3686   16.3443   21.7086 C.ar        1 DQU      -0.0345
     14 H1         17.6163   16.4922   24.8813 H           1 DQU       0.1692
     15 H2         19.0932   16.1644   24.1632 H           1 DQU       0.1692
     16 H3         15.6319   16.8764   23.5969 H           1 DQU       0.0536
     17 H4         14.6187   17.1212   21.4168 H           1 DQU       0.0515
     18 H5         15.0697   17.2760   16.7061 H           1 DQU       0.1894
     19 H6         16.5431   16.9724   15.9585 H           1 DQU       0.1894
     20 H7         18.4240   16.4859   17.2413 H           1 DQU       0.2503
     21 H8         19.3629   16.1194   21.7992 H           1 DQU       0.0532
@<TRIPOS>BOND
     1     1     2   1
     2     1     3  ar
     3     1    13  ar
     4     3     4  ar
     5     4     5  ar
     6     5     6   1
     7     5    12  ar
     8     6     7   2
     9     7     8   1
    10     7     9  am
    11     9    10  am
    12    10    11   2
    13    10    12   1
    14    12    13  ar
    15     2    14   1
    16     2    15   1
    17     3    16   1
    18     4    17   1
    19     8    18   1
    20     8    19   1
    21     9    20   1
    22    13    21   1
@<TRIPOS>SUBSTRUCTURE
     1  DQU      1

