@<TRIPOS>MOLECULE
1r5y_ligand_038
    21    22
SMALL
GAST_HUCK
****
This file was generated by PARSER (from files_GN.cpp)

@<TRIPOS>ATOM
      1 C6         15.3000   16.6776   18.5959 C.ar        1 DQU       0.0312
      2 N4         14.8392   16.7102   17.3307 N.pl3       1 DQU      -0.3412
      3 C1         14.4132   16.8876   19.6712 C.ar        1 DQU      -0.0487
      4 C2         14.8916   16.8604   20.9938 C.ar        1 DQU      -0.0660
      5 C3         16.2516   16.6190   21.2490 C.ar        1 DQU      -0.0076
      6 N3         16.7123   16.5924   22.5361 N.2         1 DQU      -0.3133
      7 C8         18.0156   16.3423   22.8040 C.2         1 DQU       0.2280
      8 N2         18.4471   16.3147   24.0727 N.pl3       1 DQU      -0.2818
      9 N1         18.8754   16.1140   21.7771 N.am        1 DQU      -0.1802
     10 C7         18.4903   16.1512   20.5052 C.2         1 DQU       0.2303
     11 O1         19.3471   15.9681   19.6538 O.2         1 DQU      -0.3873
     12 C4         17.1536   16.3978   20.1714 C.ar        1 DQU       0.0454
     13 C5         16.6642   16.4304   18.8468 C.ar        1 DQU      -0.0345
     14 H1         13.8996   16.8831   17.1588 H           1 DQU       0.1692
     15 H2         15.4464   16.5609   16.5895 H           1 DQU       0.1692
     16 H3         13.4226   17.0701   19.4980 H           1 DQU       0.0536
     17 H4         14.2457   17.0218   21.7697 H           1 DQU       0.0515
     18 H5         17.8385   16.4995   24.8040 H           1 DQU       0.1894
     19 H6         19.3806   16.1380   24.2628 H           1 DQU       0.1894
     20 H7         19.8047   15.9176   21.9748 H           1 DQU       0.2503
     21 H8         17.2975   16.2662   18.0602 H           1 DQU       0.0532
@<TRIPOS>BOND
     1     1     2   1
     2     1     3  ar
     3     1    13  ar
     4     3     4  ar
     5     4     5  ar
     6     5     6   1
     7     5    12  ar
     8     6     7   2
     9     7     8   1
    10     7     9  am
    11     9    10  am
    12    10    11   2
    13    10    12   1
    14    12    13  ar
    15     2    14   1
    16     2    15   1
    17     3    16   1
    18     4    17   1
    19     8    18   1
    20     8    19   1
    21     9    20   1
    22    13    21   1
@<TRIPOS>SUBSTRUCTURE
     1  DQU      1

