@<TRIPOS>MOLECULE
1r5y_ligand_050
    21    22
SMALL
GAST_HUCK
****
This file was generated by PARSER (from files_GN.cpp)

@<TRIPOS>ATOM
      1 C6         16.4969   21.0712   10.2131 C.ar        1 DQU       0.0312
      2 N4         16.7811   22.2245    9.5825 N.pl3       1 DQU      -0.3412
      3 C1         15.1552   20.6982   10.4287 C.ar        1 DQU      -0.0487
      4 C2         14.8510   19.4928   11.0859 C.ar        1 DQU      -0.0660
      5 C3         15.8894   18.6524   11.5318 C.ar        1 DQU      -0.0076
      6 N3         15.5973   17.4802   12.1701 N.2         1 DQU      -0.3133
      7 C8         16.5831   16.6578   12.6048 C.2         1 DQU       0.2280
      8 N2         16.2736   15.5120   13.2275 N.pl3       1 DQU      -0.2818
      9 N1         17.8818   17.0003   12.4064 N.am        1 DQU      -0.1802
     10 C7         18.2269   18.1296   11.7919 C.2         1 DQU       0.2303
     11 O1         19.4213   18.3536   11.6581 O.2         1 DQU      -0.3873
     12 C4         17.2484   19.0168   11.3210 C.ar        1 DQU       0.0454
     13 C5         17.5393   20.2325   10.6587 C.ar        1 DQU      -0.0345
     14 H1         16.0638   22.8008    9.2745 H           1 DQU       0.1692
     15 H2         17.7043   22.4828    9.4320 H           1 DQU       0.1692
     16 H3         14.3941   21.3022   10.1085 H           1 DQU       0.0536
     17 H4         13.8727   19.2319   11.2360 H           1 DQU       0.0515
     18 H5         15.3446   15.2675   13.3697 H           1 DQU       0.1894
     19 H6         16.9808   14.9251   13.5372 H           1 DQU       0.1894
     20 H7         18.5768   16.4033   12.7295 H           1 DQU       0.2503
     21 H8         18.5110   20.5116   10.4978 H           1 DQU       0.0532
@<TRIPOS>BOND
     1     1     2   1
     2     1     3  ar
     3     1    13  ar
     4     3     4  ar
     5     4     5  ar
     6     5     6   1
     7     5    12  ar
     8     6     7   2
     9     7     8   1
    10     7     9  am
    11     9    10  am
    12    10    11   2
    13    10    12   1
    14    12    13  ar
    15     2    14   1
    16     2    15   1
    17     3    16   1
    18     4    17   1
    19     8    18   1
    20     8    19   1
    21     9    20   1
    22    13    21   1
@<TRIPOS>SUBSTRUCTURE
     1  DQU      1

