@<TRIPOS>MOLECULE
1r5y_ligand_040
    21    22
SMALL
GAST_HUCK
****
This file was generated by PARSER (from files_GN.cpp)

@<TRIPOS>ATOM
      1 C6          9.5777   16.9283   14.2862 C.ar        1 DQU       0.0312
      2 N4          8.2670   17.0602   14.5567 N.pl3       1 DQU      -0.3412
      3 C1         10.2733   17.9724   13.6499 C.ar        1 DQU      -0.0487
      4 C2         11.6449   17.8440   13.3694 C.ar        1 DQU      -0.0660
      5 C3         12.3320   16.6744   13.7428 C.ar        1 DQU      -0.0076
      6 N3         13.6636   16.5431   13.4623 N.2         1 DQU      -0.3133
      7 C8         14.3359   15.4172   13.7955 C.2         1 DQU       0.2280
      8 N2         15.6467   15.3064   13.5313 N.pl3       1 DQU      -0.2818
      9 N1         13.6685   14.4071   14.4045 N.am        1 DQU      -0.1802
     10 C7         12.3774   14.4731   14.7123 C.2         1 DQU       0.2303
     11 O1         11.8812   13.5236   15.3025 O.2         1 DQU      -0.3873
     12 C4         11.6412   15.6147   14.3921 C.ar        1 DQU       0.0454
     13 C5         10.2603   15.7545   14.6581 C.ar        1 DQU      -0.0345
     14 H1          7.7881   17.8613   14.2923 H           1 DQU       0.1692
     15 H2          7.7953   16.3445   15.0081 H           1 DQU       0.1692
     16 H3          9.7812   18.8309   13.3971 H           1 DQU       0.0536
     17 H4         12.1386   18.6071   12.9006 H           1 DQU       0.0515
     18 H5         16.1129   16.0360   13.0919 H           1 DQU       0.1894
     19 H6         16.1289   14.4985   13.7730 H           1 DQU       0.1894
     20 H7         14.1628   13.6176   14.6499 H           1 DQU       0.2503
     21 H8          9.7418   15.0104   15.1290 H           1 DQU       0.0532
@<TRIPOS>BOND
     1     1     2   1
     2     1     3  ar
     3     1    13  ar
     4     3     4  ar
     5     4     5  ar
     6     5     6   1
     7     5    12  ar
     8     6     7   2
     9     7     8   1
    10     7     9  am
    11     9    10  am
    12    10    11   2
    13    10    12   1
    14    12    13  ar
    15     2    14   1
    16     2    15   1
    17     3    16   1
    18     4    17   1
    19     8    18   1
    20     8    19   1
    21     9    20   1
    22    13    21   1
@<TRIPOS>SUBSTRUCTURE
     1  DQU      1

