@<TRIPOS>MOLECULE
1r5y_ligand_005
    21    22
SMALL
GAST_HUCK
****
This file was generated by PARSER (from files_GN.cpp)

@<TRIPOS>ATOM
      1 C6         19.3866   18.2595   19.5944 C.ar        1 DQU       0.0312
      2 N4         20.4983   18.8951   19.9984 N.pl3       1 DQU      -0.3412
      3 C1         19.1395   18.0383   18.2238 C.ar        1 DQU      -0.0487
      4 C2         17.9491   17.4160   17.8046 C.ar        1 DQU      -0.0660
      5 C3         16.9949   17.0136   18.7566 C.ar        1 DQU      -0.0076
      6 N3         15.8187   16.4490   18.3516 N.2         1 DQU      -0.3133
      7 C8         14.8804   16.0797   19.2591 C.2         1 DQU       0.2280
      8 N2         13.7150   15.5389   18.8667 N.pl3       1 DQU      -0.2818
      9 N1         15.1196   16.2681   20.5824 N.am        1 DQU      -0.1802
     10 C7         16.2496   16.7993   21.0327 C.2         1 DQU       0.2303
     11 O1         16.3648   16.9334   22.2420 O.2         1 DQU      -0.3873
     12 C4         17.2433   17.2107   20.1432 C.ar        1 DQU       0.0454
     13 C5         18.4461   17.8321   20.5494 C.ar        1 DQU      -0.0345
     14 H1         21.1610   19.1772   19.3512 H           1 DQU       0.1692
     15 H2         20.6164   19.1131   20.9363 H           1 DQU       0.1692
     16 H3         19.8133   18.3522   17.5223 H           1 DQU       0.0536
     17 H4         17.7774   17.2710   16.8077 H           1 DQU       0.0515
     18 H5         13.5274   15.3995   17.9227 H           1 DQU       0.1894
     19 H6         13.0586   15.2991   19.5372 H           1 DQU       0.1894
     20 H7         14.4393   16.0130   21.2185 H           1 DQU       0.2503
     21 H8         18.6303   17.9892   21.5444 H           1 DQU       0.0532
@<TRIPOS>BOND
     1     1     2   1
     2     1     3  ar
     3     1    13  ar
     4     3     4  ar
     5     4     5  ar
     6     5     6   1
     7     5    12  ar
     8     6     7   2
     9     7     8   1
    10     7     9  am
    11     9    10  am
    12    10    11   2
    13    10    12   1
    14    12    13  ar
    15     2    14   1
    16     2    15   1
    17     3    16   1
    18     4    17   1
    19     8    18   1
    20     8    19   1
    21     9    20   1
    22    13    21   1
@<TRIPOS>SUBSTRUCTURE
     1  DQU      1

