@<TRIPOS>MOLECULE
1r5y_ligand_028
    21    22
SMALL
GAST_HUCK
****
This file was generated by PARSER (from files_GN.cpp)

@<TRIPOS>ATOM
      1 C6         14.6667   15.2254   17.2793 C.ar        1 DQU       0.0312
      2 N4         15.1098   14.1602   17.9708 N.pl3       1 DQU      -0.3412
      3 C1         14.0042   16.2788   17.9408 C.ar        1 DQU      -0.0487
      4 C2         13.4995   17.3703   17.2064 C.ar        1 DQU      -0.0660
      5 C3         13.6765   17.4227   15.8121 C.ar        1 DQU      -0.0076
      6 N3         13.1987   18.4860   15.0976 N.2         1 DQU      -0.3133
      7 C8         13.3741   18.5578   13.7543 C.2         1 DQU       0.2280
      8 N2         12.9082   19.6073   13.0638 N.pl3       1 DQU      -0.2818
      9 N1         14.0223   17.5567   13.1083 N.am        1 DQU      -0.1802
     10 C7         14.4969   16.4897   13.7462 C.2         1 DQU       0.2303
     11 O1         15.0552   15.6358   13.0741 O.2         1 DQU      -0.3873
     12 C4         14.3593   16.3733   15.1356 C.ar        1 DQU       0.0454
     13 C5         14.8489   15.2774   15.8838 C.ar        1 DQU      -0.0345
     14 H1         14.9941   14.1185   18.9333 H           1 DQU       0.1692
     15 H2         15.4855   13.4037   17.4951 H           1 DQU       0.1692
     16 H3         13.8672   16.2476   18.9547 H           1 DQU       0.0536
     17 H4         12.9986   18.1164   17.6931 H           1 DQU       0.0515
     18 H5         12.4421   20.3261   13.5219 H           1 DQU       0.1894
     19 H6         13.0395   19.6505   12.1031 H           1 DQU       0.1894
     20 H7         14.1433   17.6206   12.1478 H           1 DQU       0.2503
     21 H8         15.3433   14.5143   15.4125 H           1 DQU       0.0532
@<TRIPOS>BOND
     1     1     2   1
     2     1     3  ar
     3     1    13  ar
     4     3     4  ar
     5     4     5  ar
     6     5     6   1
     7     5    12  ar
     8     6     7   2
     9     7     8   1
    10     7     9  am
    11     9    10  am
    12    10    11   2
    13    10    12   1
    14    12    13  ar
    15     2    14   1
    16     2    15   1
    17     3    16   1
    18     4    17   1
    19     8    18   1
    20     8    19   1
    21     9    20   1
    22    13    21   1
@<TRIPOS>SUBSTRUCTURE
     1  DQU      1

