@<TRIPOS>MOLECULE
1r5y_ligand_052
    21    22
SMALL
GAST_HUCK
****
This file was generated by PARSER (from files_GN.cpp)

@<TRIPOS>ATOM
      1 C6         15.4380   15.6844   13.5601 C.ar        1 DQU       0.0312
      2 N4         15.7464   14.4915   14.0993 N.pl3       1 DQU      -0.3412
      3 C1         14.1681   16.2524   13.7835 C.ar        1 DQU      -0.0487
      4 C2         13.8427   17.5014   13.2237 C.ar        1 DQU      -0.0660
      5 C3         14.7854   18.1854   12.4331 C.ar        1 DQU      -0.0076
      6 N3         14.4678   19.3963   11.8851 N.2         1 DQU      -0.3133
      7 C8         15.3606   20.0711   11.1204 C.2         1 DQU       0.2280
      8 N2         15.0314   21.2603   10.5953 N.pl3       1 DQU      -0.2818
      9 N1         16.5884   19.5370   10.8918 N.am        1 DQU      -0.1802
     10 C7         16.9517   18.3615   11.3973 C.2         1 DQU       0.2303
     11 O1         18.0791   17.9651   11.1376 O.2         1 DQU      -0.3873
     12 C4         16.0686   17.6223   12.1937 C.ar        1 DQU       0.0454
     13 C5         16.3830   16.3660   12.7645 C.ar        1 DQU      -0.0345
     14 H1         15.1108   14.0092   14.6494 H           1 DQU       0.1692
     15 H2         16.6123   14.0938   13.9346 H           1 DQU       0.1692
     16 H3         13.4779   15.7608   14.3558 H           1 DQU       0.0536
     17 H4         12.9185   17.9033   13.3919 H           1 DQU       0.0515
     18 H5         14.1534   21.6387   10.7612 H           1 DQU       0.1894
     19 H6         15.6710   21.7449   10.0498 H           1 DQU       0.1894
     20 H7         17.2197   20.0294   10.3431 H           1 DQU       0.2503
     21 H8         17.3018   15.9448   12.6056 H           1 DQU       0.0532
@<TRIPOS>BOND
     1     1     2   1
     2     1     3  ar
     3     1    13  ar
     4     3     4  ar
     5     4     5  ar
     6     5     6   1
     7     5    12  ar
     8     6     7   2
     9     7     8   1
    10     7     9  am
    11     9    10  am
    12    10    11   2
    13    10    12   1
    14    12    13  ar
    15     2    14   1
    16     2    15   1
    17     3    16   1
    18     4    17   1
    19     8    18   1
    20     8    19   1
    21     9    20   1
    22    13    21   1
@<TRIPOS>SUBSTRUCTURE
     1  DQU      1

