@<TRIPOS>MOLECULE
1r5y_ligand_045
    21    22
SMALL
GAST_HUCK
****
This file was generated by PARSER (from files_GN.cpp)

@<TRIPOS>ATOM
      1 C6         13.4377   18.2958   13.7434 C.ar        1 DQU       0.0312
      2 N4         13.5630   18.9291   12.5636 N.pl3       1 DQU      -0.3412
      3 C1         14.4431   18.4233   14.7228 C.ar        1 DQU      -0.0487
      4 C2         14.3178   17.7610   15.9577 C.ar        1 DQU      -0.0660
      5 C3         13.1841   16.9696   16.2204 C.ar        1 DQU      -0.0076
      6 N3         13.0643   16.3231   17.4181 N.2         1 DQU      -0.3133
      7 C8         11.9831   15.5500   17.6868 C.2         1 DQU       0.2280
      8 N2         11.8802   14.9249   18.8680 N.pl3       1 DQU      -0.2818
      9 N1         11.0031   15.4184   16.7564 N.am        1 DQU      -0.1802
     10 C7         11.0664   16.0266   15.5742 C.2         1 DQU       0.2303
     11 O1         10.1392   15.8434   14.7992 O.2         1 DQU      -0.3873
     12 C4         12.1613   16.8335   15.2418 C.ar        1 DQU       0.0454
     13 C5         12.3008   17.5033   14.0031 C.ar        1 DQU      -0.0345
     14 H1         14.3438   19.4773   12.3859 H           1 DQU       0.1692
     15 H2         12.8730   18.8404   11.8862 H           1 DQU       0.1692
     16 H3         15.2708   18.9968   14.5426 H           1 DQU       0.0536
     17 H4         15.0552   17.8545   16.6597 H           1 DQU       0.0515
     18 H5         12.5604   15.0476   19.5483 H           1 DQU       0.1894
     19 H6         11.0991   14.3830   19.0622 H           1 DQU       0.1894
     20 H7         10.2319   14.8660   16.9618 H           1 DQU       0.2503
     21 H8         11.5756   17.4169   13.2856 H           1 DQU       0.0532
@<TRIPOS>BOND
     1     1     2   1
     2     1     3  ar
     3     1    13  ar
     4     3     4  ar
     5     4     5  ar
     6     5     6   1
     7     5    12  ar
     8     6     7   2
     9     7     8   1
    10     7     9  am
    11     9    10  am
    12    10    11   2
    13    10    12   1
    14    12    13  ar
    15     2    14   1
    16     2    15   1
    17     3    16   1
    18     4    17   1
    19     8    18   1
    20     8    19   1
    21     9    20   1
    22    13    21   1
@<TRIPOS>SUBSTRUCTURE
     1  DQU      1

