@<TRIPOS>MOLECULE
1r5y_ligand_046
    21    22
SMALL
GAST_HUCK
****
This file was generated by PARSER (from files_GN.cpp)

@<TRIPOS>ATOM
      1 C6         14.9437   18.5849   15.6148 C.ar        1 DQU       0.0312
      2 N4         15.1044   19.6794   14.8498 N.pl3       1 DQU      -0.3412
      3 C1         16.0623   17.8079   15.9765 C.ar        1 DQU      -0.0487
      4 C2         15.9012   16.6650   16.7802 C.ar        1 DQU      -0.0660
      5 C3         14.6190   16.2933   17.2274 C.ar        1 DQU      -0.0076
      6 N3         14.4608   15.1827   18.0079 N.2         1 DQU      -0.3133
      7 C8         13.2344   14.8083   18.4478 C.2         1 DQU       0.2280
      8 N2         13.1005   13.7155   19.2138 N.pl3       1 DQU      -0.2818
      9 N1         12.1453   15.5460   18.1096 N.am        1 DQU      -0.1802
     10 C7         12.2396   16.6367   17.3531 C.2         1 DQU       0.2303
     11 O1         11.2040   17.2364   17.1034 O.2         1 DQU      -0.3873
     12 C4         13.4817   17.0692   16.8709 C.ar        1 DQU       0.0454
     13 C5         13.6580   18.2162   16.0617 C.ar        1 DQU      -0.0345
     14 H1         15.9894   19.9346   14.5449 H           1 DQU       0.1692
     15 H2         14.3360   20.2174   14.6016 H           1 DQU       0.1692
     16 H3         16.9983   18.0698   15.6571 H           1 DQU       0.0536
     17 H4         16.7196   16.1068   17.0364 H           1 DQU       0.0515
     18 H5         13.8809   13.1918   19.4544 H           1 DQU       0.1894
     19 H6         12.2235   13.4488   19.5313 H           1 DQU       0.1894
     20 H7         11.2714   15.2702   18.4317 H           1 DQU       0.2503
     21 H8         12.8514   18.7876   15.7955 H           1 DQU       0.0532
@<TRIPOS>BOND
     1     1     2   1
     2     1     3  ar
     3     1    13  ar
     4     3     4  ar
     5     4     5  ar
     6     5     6   1
     7     5    12  ar
     8     6     7   2
     9     7     8   1
    10     7     9  am
    11     9    10  am
    12    10    11   2
    13    10    12   1
    14    12    13  ar
    15     2    14   1
    16     2    15   1
    17     3    16   1
    18     4    17   1
    19     8    18   1
    20     8    19   1
    21     9    20   1
    22    13    21   1
@<TRIPOS>SUBSTRUCTURE
     1  DQU      1

