@<TRIPOS>MOLECULE
1r5y_ligand_014
    21    22
SMALL
GAST_HUCK
****
This file was generated by PARSER (from files_GN.cpp)

@<TRIPOS>ATOM
      1 C6         13.1478   15.3055   18.2156 C.ar        1 DQU       0.0312
      2 N4         12.2135   14.6013   18.8803 N.pl3       1 DQU      -0.3412
      3 C1         14.4833   14.8568   18.2083 C.ar        1 DQU      -0.0487
      4 C2         15.4748   15.5921   17.5361 C.ar        1 DQU      -0.0660
      5 C3         15.1327   16.7702   16.8488 C.ar        1 DQU      -0.0076
      6 N3         16.0964   17.4827   16.1964 N.2         1 DQU      -0.3133
      7 C8         15.7918   18.6197   15.5224 C.2         1 DQU       0.2280
      8 N2         16.7571   19.3073   14.8968 N.pl3       1 DQU      -0.2818
      9 N1         14.5051   19.0584   15.4913 N.am        1 DQU      -0.1802
     10 C7         13.5243   18.4084   16.1182 C.2         1 DQU       0.2303
     11 O1         12.3969   18.8848   16.0516 O.2         1 DQU      -0.3873
     12 C4         13.7849   17.2285   16.8329 C.ar        1 DQU       0.0454
     13 C5         12.7995   16.4875   17.5283 C.ar        1 DQU      -0.0345
     14 H1         12.4570   13.7805   19.3401 H           1 DQU       0.1692
     15 H2         11.2965   14.9148   18.9149 H           1 DQU       0.1692
     16 H3         14.7444   13.9999   18.6980 H           1 DQU       0.0536
     17 H4         16.4459   15.2692   17.5521 H           1 DQU       0.0515
     18 H5         17.6743   18.9915   14.9284 H           1 DQU       0.1894
     19 H6         16.5415   20.1215   14.4157 H           1 DQU       0.1894
     20 H7         14.2944   19.8702   15.0012 H           1 DQU       0.2503
     21 H8         11.8266   16.8050   17.5297 H           1 DQU       0.0532
@<TRIPOS>BOND
     1     1     2   1
     2     1     3  ar
     3     1    13  ar
     4     3     4  ar
     5     4     5  ar
     6     5     6   1
     7     5    12  ar
     8     6     7   2
     9     7     8   1
    10     7     9  am
    11     9    10  am
    12    10    11   2
    13    10    12   1
    14    12    13  ar
    15     2    14   1
    16     2    15   1
    17     3    16   1
    18     4    17   1
    19     8    18   1
    20     8    19   1
    21     9    20   1
    22    13    21   1
@<TRIPOS>SUBSTRUCTURE
     1  DQU      1

