@<TRIPOS>MOLECULE
1r5y_ligand_033
    21    22
SMALL
GAST_HUCK
****
This file was generated by PARSER (from files_GN.cpp)

@<TRIPOS>ATOM
      1 C6         14.4848   15.6827   13.9021 C.ar        1 DQU       0.0312
      2 N4         15.2722   14.5978   14.0130 N.pl3       1 DQU      -0.3412
      3 C1         13.1699   15.6560   14.4082 C.ar        1 DQU      -0.0487
      4 C2         12.3492   16.7942   14.3089 C.ar        1 DQU      -0.0660
      5 C3         12.8428   17.9675   13.7072 C.ar        1 DQU      -0.0076
      6 N3         12.0507   19.0776   13.6198 N.2         1 DQU      -0.3133
      7 C8         12.5148   20.2224   13.0620 C.2         1 DQU       0.2280
      8 N2         11.7197   21.2990   12.9802 N.pl3       1 DQU      -0.2818
      9 N1         13.7834   20.2694   12.5800 N.am        1 DQU      -0.1802
     10 C7         14.5958   19.2171   12.6291 C.2         1 DQU       0.2303
     11 O1         15.7196   19.3552   12.1680 O.2         1 DQU      -0.3873
     12 C4         14.1688   18.0088   13.1951 C.ar        1 DQU       0.0454
     13 C5         14.9794   16.8537   13.2922 C.ar        1 DQU      -0.0345
     14 H1         14.9452   13.8022   14.4607 H           1 DQU       0.1692
     15 H2         16.1805   14.6180   13.6717 H           1 DQU       0.1692
     16 H3         12.8046   14.8097   14.8527 H           1 DQU       0.0536
     17 H4         11.3968   16.7669   14.6824 H           1 DQU       0.0515
     18 H5         10.8078   21.2555   13.3082 H           1 DQU       0.1894
     19 H6         12.0508   22.1189   12.5812 H           1 DQU       0.1894
     20 H7         14.1053   21.0959   12.1854 H           1 DQU       0.2503
     21 H8         15.9366   16.8646   12.9294 H           1 DQU       0.0532
@<TRIPOS>BOND
     1     1     2   1
     2     1     3  ar
     3     1    13  ar
     4     3     4  ar
     5     4     5  ar
     6     5     6   1
     7     5    12  ar
     8     6     7   2
     9     7     8   1
    10     7     9  am
    11     9    10  am
    12    10    11   2
    13    10    12   1
    14    12    13  ar
    15     2    14   1
    16     2    15   1
    17     3    16   1
    18     4    17   1
    19     8    18   1
    20     8    19   1
    21     9    20   1
    22    13    21   1
@<TRIPOS>SUBSTRUCTURE
     1  DQU      1

