@<TRIPOS>MOLECULE
1r5y_ligand_019
    21    22
SMALL
GAST_HUCK
****
This file was generated by PARSER (from files_GN.cpp)

@<TRIPOS>ATOM
      1 C6         13.8435   15.7223   15.2226 C.ar        1 DQU       0.0312
      2 N4         13.0899   14.6106   15.2918 N.pl3       1 DQU      -0.3412
      3 C1         15.2306   15.6160   14.9981 C.ar        1 DQU      -0.0487
      4 C2         16.0274   16.7728   14.9270 C.ar        1 DQU      -0.0660
      5 C3         15.4401   18.0436   15.0806 C.ar        1 DQU      -0.0076
      6 N3         16.2115   19.1688   15.0074 N.2         1 DQU      -0.3133
      7 C8         15.6635   20.4005   15.1477 C.2         1 DQU       0.2280
      8 N2         16.4378   21.4925   15.0717 N.pl3       1 DQU      -0.2818
      9 N1         14.3277   20.5206   15.3662 N.am        1 DQU      -0.1802
     10 C7         13.5290   19.4607   15.4507 C.2         1 DQU       0.2303
     11 O1         12.3410   19.6679   15.6570 O.2         1 DQU      -0.3873
     12 C4         14.0407   18.1648   15.3074 C.ar        1 DQU       0.0454
     13 C5         13.2513   16.9927   15.3763 C.ar        1 DQU      -0.0345
     14 H1         13.5059   13.7382   15.2044 H           1 DQU       0.1692
     15 H2         12.1329   14.6760   15.4405 H           1 DQU       0.1692
     16 H3         15.6650   14.6975   14.8821 H           1 DQU       0.0536
     17 H4         17.0336   16.6841   14.7645 H           1 DQU       0.0515
     18 H5         17.3914   21.4023   14.9164 H           1 DQU       0.1894
     19 H6         16.0463   22.3747   15.1736 H           1 DQU       0.1894
     20 H7         13.9464   21.4078   15.4659 H           1 DQU       0.2503
     21 H8         12.2425   17.0601   15.5399 H           1 DQU       0.0532
@<TRIPOS>BOND
     1     1     2   1
     2     1     3  ar
     3     1    13  ar
     4     3     4  ar
     5     4     5  ar
     6     5     6   1
     7     5    12  ar
     8     6     7   2
     9     7     8   1
    10     7     9  am
    11     9    10  am
    12    10    11   2
    13    10    12   1
    14    12    13  ar
    15     2    14   1
    16     2    15   1
    17     3    16   1
    18     4    17   1
    19     8    18   1
    20     8    19   1
    21     9    20   1
    22    13    21   1
@<TRIPOS>SUBSTRUCTURE
     1  DQU      1

