@<TRIPOS>MOLECULE
1r5y_ligand_022
    21    22
SMALL
GAST_HUCK
****
This file was generated by PARSER (from files_GN.cpp)

@<TRIPOS>ATOM
      1 C6         13.6967   21.2405   13.5022 C.ar        1 DQU       0.0312
      2 N4         12.7051   22.1445   13.3953 N.pl3       1 DQU      -0.3412
      3 C1         13.4461   19.8820   13.2283 C.ar        1 DQU      -0.0487
      4 C2         14.4785   18.9347   13.3399 C.ar        1 DQU      -0.0660
      5 C3         15.7691   19.3428   13.7287 C.ar        1 DQU      -0.0076
      6 N3         16.7709   18.4195   13.8341 N.2         1 DQU      -0.3133
      7 C8         18.0195   18.7933   14.2041 C.2         1 DQU       0.2280
      8 N2         19.0022   17.8856   14.3047 N.pl3       1 DQU      -0.2818
      9 N1         18.2838   20.0968   14.4743 N.am        1 DQU      -0.1802
     10 C7         17.3451   21.0384   14.3884 C.2         1 DQU       0.2303
     11 O1         17.6777   22.1860   14.6484 O.2         1 DQU      -0.3873
     12 C4         16.0375   20.7100   14.0099 C.ar        1 DQU       0.0454
     13 C5         14.9886   21.6528   13.8922 C.ar        1 DQU      -0.0345
     14 H1         11.8117   21.8642   13.1404 H           1 DQU       0.1692
     15 H2         12.8787   23.0796   13.5851 H           1 DQU       0.1692
     16 H3         12.5115   19.5746   12.9455 H           1 DQU       0.0536
     17 H4         14.2888   17.9500   13.1369 H           1 DQU       0.0515
     18 H5         18.8340   16.9467   14.1172 H           1 DQU       0.1894
     19 H6         19.8885   18.1790   14.5670 H           1 DQU       0.1894
     20 H7         19.1865   20.3415   14.7356 H           1 DQU       0.2503
     21 H8         15.1598   22.6418   14.0907 H           1 DQU       0.0532
@<TRIPOS>BOND
     1     1     2   1
     2     1     3  ar
     3     1    13  ar
     4     3     4  ar
     5     4     5  ar
     6     5     6   1
     7     5    12  ar
     8     6     7   2
     9     7     8   1
    10     7     9  am
    11     9    10  am
    12    10    11   2
    13    10    12   1
    14    12    13  ar
    15     2    14   1
    16     2    15   1
    17     3    16   1
    18     4    17   1
    19     8    18   1
    20     8    19   1
    21     9    20   1
    22    13    21   1
@<TRIPOS>SUBSTRUCTURE
     1  DQU      1

