@<TRIPOS>MOLECULE
1r5y_ligand_007
    21    22
SMALL
GAST_HUCK
****
This file was generated by PARSER (from files_GN.cpp)

@<TRIPOS>ATOM
      1 C6         18.6817   17.6501   20.0113 C.ar        1 DQU       0.0312
      2 N4         19.6852   18.5452   19.9620 N.pl3       1 DQU      -0.3412
      3 C1         18.1100   17.3017   21.2515 C.ar        1 DQU      -0.0487
      4 C2         17.0830   16.3423   21.3127 C.ar        1 DQU      -0.0660
      5 C3         16.6057   15.7420   20.1326 C.ar        1 DQU      -0.0076
      6 N3         15.6130   14.8052   20.1921 N.2         1 DQU      -0.3133
      7 C8         15.1396   14.2171   19.0666 C.2         1 DQU       0.2280
      8 N2         14.1528   13.3145   19.1478 N.pl3       1 DQU      -0.2818
      9 N1         15.6546   14.5620   17.8575 N.am        1 DQU      -0.1802
     10 C7         16.6044   15.4886   17.7393 C.2         1 DQU       0.2303
     11 O1         16.9692   15.7832   16.6082 O.2         1 DQU      -0.3873
     12 C4         17.1518   16.1062   18.8722 C.ar        1 DQU       0.0454
     13 C5         18.2027   17.0535   18.8257 C.ar        1 DQU      -0.0345
     14 H1         19.9749   18.9923   20.7730 H           1 DQU       0.1692
     15 H2         20.1427   18.7212   19.1251 H           1 DQU       0.1692
     16 H3         18.4555   17.7239   22.1165 H           1 DQU       0.0536
     17 H4         16.6897   16.0811   22.2204 H           1 DQU       0.0515
     18 H5         13.7724   13.0862   20.0105 H           1 DQU       0.1894
     19 H6         13.8033   12.9087   18.3395 H           1 DQU       0.1894
     20 H7         15.3090   14.1290   17.0569 H           1 DQU       0.2503
     21 H8         18.6193   17.3208   17.9273 H           1 DQU       0.0532
@<TRIPOS>BOND
     1     1     2   1
     2     1     3  ar
     3     1    13  ar
     4     3     4  ar
     5     4     5  ar
     6     5     6   1
     7     5    12  ar
     8     6     7   2
     9     7     8   1
    10     7     9  am
    11     9    10  am
    12    10    11   2
    13    10    12   1
    14    12    13  ar
    15     2    14   1
    16     2    15   1
    17     3    16   1
    18     4    17   1
    19     8    18   1
    20     8    19   1
    21     9    20   1
    22    13    21   1
@<TRIPOS>SUBSTRUCTURE
     1  DQU      1

