@<TRIPOS>MOLECULE
1r5y_ligand_055
    21    22
SMALL
GAST_HUCK
****
This file was generated by PARSER (from files_GN.cpp)

@<TRIPOS>ATOM
      1 C6         14.5103   14.9083   16.9920 C.ar        1 DQU       0.0312
      2 N4         15.5145   14.3025   17.6543 N.pl3       1 DQU      -0.3412
      3 C1         13.3151   14.2151   16.7108 C.ar        1 DQU      -0.0487
      4 C2         12.2898   14.8358   15.9746 C.ar        1 DQU      -0.0660
      5 C3         12.4483   16.1606   15.5268 C.ar        1 DQU      -0.0076
      6 N3         11.4496   16.7653   14.8172 N.2         1 DQU      -0.3133
      7 C8         11.5750   18.0472   14.3962 C.2         1 DQU       0.2280
      8 N2         10.5752   18.6365   13.7255 N.pl3       1 DQU      -0.2818
      9 N1         12.7094   18.7393   14.6737 N.am        1 DQU      -0.1802
     10 C7         13.7206   18.1958   15.3457 C.2         1 DQU       0.2303
     11 O1         14.7068   18.8932   15.5327 O.2         1 DQU      -0.3873
     12 C4         13.6405   16.8792   15.8169 C.ar        1 DQU       0.0454
     13 C5         14.6666   16.2390   16.5512 C.ar        1 DQU      -0.0345
     14 H1         15.4621   13.3570   17.8711 H           1 DQU       0.1692
     15 H2         16.3256   14.7955   17.8571 H           1 DQU       0.1692
     16 H3         13.1837   13.2549   17.0369 H           1 DQU       0.0536
     17 H4         11.4305   14.3205   15.7657 H           1 DQU       0.0515
     18 H5          9.7631   18.1436   13.5288 H           1 DQU       0.1894
     19 H6         10.6506   19.5689   13.4676 H           1 DQU       0.1894
     20 H7         12.7839   19.6582   14.3693 H           1 DQU       0.2503
     21 H8         15.5416   16.7334   16.7494 H           1 DQU       0.0532
@<TRIPOS>BOND
     1     1     2   1
     2     1     3  ar
     3     1    13  ar
     4     3     4  ar
     5     4     5  ar
     6     5     6   1
     7     5    12  ar
     8     6     7   2
     9     7     8   1
    10     7     9  am
    11     9    10  am
    12    10    11   2
    13    10    12   1
    14    12    13  ar
    15     2    14   1
    16     2    15   1
    17     3    16   1
    18     4    17   1
    19     8    18   1
    20     8    19   1
    21     9    20   1
    22    13    21   1
@<TRIPOS>SUBSTRUCTURE
     1  DQU      1

