@<TRIPOS>MOLECULE
1sln_ligand_024
    70    71
SMALL
GAST_HUCK
****
This file was generated by PARSER (from files_GN.cpp)

@<TRIPOS>ATOM
      1 C1        -22.2625   90.6765   80.0489 C.3         1 INH      -0.0094
      2 C2        -21.7247   90.6832   81.5046 C.3         1 INH       0.0293
      3 C3        -22.6836   91.3001   82.4545 C.2         1 INH       0.0842
      4 O4        -23.8597   90.6851   82.7024 O.co2       1 INH      -0.5643
      5 O5        -22.2445   92.1282   83.4353 O.co2       1 INH      -0.5643
      6 N6        -20.3240   91.2002   81.5443 N.4         1 INH       0.2597
      7 C7        -19.9700   92.6408   81.7160 C.3         1 INH       0.0701
      8 C8        -18.4180   92.8010   81.5780 C.3         1 INH       0.0177
      9 C9        -17.7712   93.9142   82.4760 C.3         1 INH      -0.0119
     10 C10       -16.6382   93.3948   83.3016 C.ar        1 INH      -0.0427
     11 C11       -16.7096   93.3853   84.7158 C.ar        1 INH      -0.0603
     12 C12       -15.6917   92.7962   85.4814 C.ar        1 INH      -0.0686
     13 C13       -14.5817   92.2154   84.8510 C.ar        1 INH      -0.0687
     14 C14       -14.4820   92.2326   83.4494 C.ar        1 INH      -0.0686
     15 C15       -15.5005   92.8229   82.6761 C.ar        1 INH      -0.0603
     16 C16       -20.7245   93.5808   80.8830 C.2         1 INH       0.2270
     17 O17       -21.4573   94.3805   81.4522 O.2         1 INH      -0.3907
     18 N18       -20.5992   93.6154   79.5579 N.am        1 INH      -0.2605
     19 C19       -21.2067   94.5659   78.6551 C.3         1 INH       0.1369
     20 C20       -22.7618   94.3391   78.4712 C.3         1 INH      -0.0087
     21 C21       -23.2112   93.9672   77.0260 C.3         1 INH      -0.0156
     22 C22       -22.7487   92.5589   76.5423 C.3         1 INH       0.0627
     23 N23       -23.7804   91.6110   76.5572 N.pl3       1 INH      -0.2723
     24 C24       -23.6453   90.3403   76.4712 C.cat       1 INH       0.2882
     25 N25       -24.6996   89.6130   76.4478 N.pl3       1 INH      -0.2849
     26 N26       -22.5135   89.7322   76.4220 N.pl3       1 INH      -0.2849
     27 C27       -20.7623   95.9353   78.9600 C.2         1 INH       0.2292
     28 O28       -19.7648   96.3665   78.3728 O.2         1 INH      -0.3823
     29 N29       -21.4408   96.7326   79.7835 N.am        1 INH      -0.2320
     30 C30       -21.2516   98.0578   80.0191 C.ar        1 INH       0.0663
     31 C31       -21.9482   98.9753   79.1985 C.ar        1 INH      -0.0413
     32 C32       -21.8190  100.3578   79.3953 C.ar        1 INH      -0.0755
     33 C33       -21.0201  100.8486   80.4493 C.ar        1 INH      -0.0772
     34 C34       -20.3546   99.9389   81.2950 C.ar        1 INH      -0.0755
     35 C35       -20.4580   98.5562   81.0805 C.ar        1 INH      -0.0413
     36 H1        -23.1932   90.1062   79.9909 H           1 INH       0.0303
     37 H2        -21.5271   90.1996   79.3868 H           1 INH       0.0303
     38 H3        -22.4460   91.6948   79.7034 H           1 INH       0.0303
     39 H4        -21.6499   89.6315   81.8062 H           1 INH       0.1023
     40 H5        -19.8482   90.8622   80.7028 H           1 INH       0.2052
     41 H6        -19.8802   90.7176   82.3321 H           1 INH       0.2052
     42 H7        -20.1637   92.8634   82.7658 H           1 INH       0.1101
     43 H8        -18.1525   92.9950   80.5267 H           1 INH       0.0368
     44 H9        -17.9626   91.8299   81.8257 H           1 INH       0.0368
     45 H10       -18.5310   94.3479   83.1250 H           1 INH       0.0429
     46 H11       -17.4107   94.7331   81.8436 H           1 INH       0.0429
     47 H12       -17.5241   93.7856   85.1921 H           1 INH       0.0557
     48 H13       -15.7710   92.7768   86.5012 H           1 INH       0.0599
     49 H14       -13.8499   91.7710   85.4080 H           1 INH       0.0559
     50 H15       -13.6756   91.8127   82.9941 H           1 INH       0.0599
     51 H16       -15.4250   92.8139   81.6567 H           1 INH       0.0557
     52 H17       -20.0082   92.9600   79.1596 H           1 INH       0.1885
     53 H18       -20.7516   94.3259   77.6894 H           1 INH       0.0805
     54 H19       -23.3174   95.2419   78.7212 H           1 INH       0.0314
     55 H20       -23.1118   93.5663   79.1587 H           1 INH       0.0314
     56 H21       -22.8178   94.7277   76.3330 H           1 INH       0.0301
     57 H22       -24.3097   94.0262   76.9645 H           1 INH       0.0301
     58 H23       -21.9079   92.2198   77.1607 H           1 INH       0.0689
     59 H24       -22.4006   92.6504   75.5066 H           1 INH       0.0689
     60 H25       -24.6583   91.9312   76.6133 H           1 INH       0.2642
     61 H26       -24.6291   88.6836   76.3861 H           1 INH       0.2615
     62 H27       -25.5422   90.0149   76.4779 H           1 INH       0.2615
     63 H28       -21.7204   90.2216   76.4407 H           1 INH       0.2615
     64 H29       -22.4821   88.8025   76.3718 H           1 INH       0.2615
     65 H30       -22.2516   96.3612   80.1708 H           1 INH       0.2257
     66 H31       -22.5389   98.6306   78.4343 H           1 INH       0.0502
     67 H32       -22.3098  101.0122   78.7808 H           1 INH       0.0577
     68 H33       -20.9338  101.8541   80.5963 H           1 INH       0.0487
     69 H34       -19.7973  100.3056   82.0733 H           1 INH       0.0577
     70 H35       -19.9758   97.9107   81.7111 H           1 INH       0.0502
@<TRIPOS>BOND
     1     1     2   1
     2     2     6   1
     3     2     3   1
     4     3     5  ar
     5     3     4  ar
     6     6     7   1
     7     7    16   1
     8     7     8   1
     9     8     9   1
    10     9    10   1
    11    10    15  ar
    12    10    11  ar
    13    11    12  ar
    14    12    13  ar
    15    13    14  ar
    16    14    15  ar
    17    16    18  am
    18    16    17   2
    19    18    19   1
    20    19    27   1
    21    19    20   1
    22    20    21   1
    23    21    22   1
    24    22    23   1
    25    23    24  ar
    26    24    26  ar
    27    24    25  ar
    28    27    29  am
    29    27    28   2
    30    29    30   1
    31    30    35  ar
    32    30    31  ar
    33    31    32  ar
    34    32    33  ar
    35    33    34  ar
    36    34    35  ar
    37     1    36   1
    38     1    37   1
    39     1    38   1
    40     2    39   1
    41     6    40   1
    42     6    41   1
    43     7    42   1
    44     8    43   1
    45     8    44   1
    46     9    45   1
    47     9    46   1
    48    11    47   1
    49    12    48   1
    50    13    49   1
    51    14    50   1
    52    15    51   1
    53    18    52   1
    54    19    53   1
    55    20    54   1
    56    20    55   1
    57    21    56   1
    58    21    57   1
    59    22    58   1
    60    22    59   1
    61    23    60   1
    62    25    61   1
    63    25    62   1
    64    26    63   1
    65    26    64   1
    66    29    65   1
    67    31    66   1
    68    32    67   1
    69    33    68   1
    70    34    69   1
    71    35    70   1
@<TRIPOS>SUBSTRUCTURE
     1  INH      1

