@<TRIPOS>MOLECULE
1sln_ligand_034
    70    71
SMALL
GAST_HUCK
****
This file was generated by PARSER (from files_GN.cpp)

@<TRIPOS>ATOM
      1 C1        -23.0028   90.8334   81.9734 C.3         1 INH      -0.0094
      2 C2        -21.5404   90.8022   81.4482 C.3         1 INH       0.0293
      3 C3        -20.6077   91.6917   82.1979 C.2         1 INH       0.0842
      4 O4        -20.8537   92.0630   83.4781 O.co2       1 INH      -0.5643
      5 O5        -19.4569   92.1262   81.6370 O.co2       1 INH      -0.5643
      6 N6        -21.4436   90.9643   79.9658 N.4         1 INH       0.2597
      7 C7        -21.6795   92.2350   79.2079 C.3         1 INH       0.0701
      8 C8        -23.1957   92.5380   78.9048 C.3         1 INH       0.0177
      9 C9        -23.5594   92.6750   77.3958 C.3         1 INH      -0.0119
     10 C10       -23.4543   91.3991   76.6307 C.ar        1 INH      -0.0427
     11 C11       -24.1290   90.2390   77.0803 C.ar        1 INH      -0.0603
     12 C12       -24.0205   89.0270   76.3735 C.ar        1 INH      -0.0686
     13 C13       -23.2401   88.9576   75.2040 C.ar        1 INH      -0.0687
     14 C14       -22.5838   90.1080   74.7349 C.ar        1 INH      -0.0686
     15 C15       -22.6962   91.3204   75.4364 C.ar        1 INH      -0.0603
     16 C16       -20.9564   93.3850   79.7530 C.2         1 INH       0.2270
     17 O17       -21.3984   93.9403   80.7543 O.2         1 INH      -0.3907
     18 N18       -19.8500   93.8375   79.1533 N.am        1 INH      -0.2605
     19 C19       -18.8901   94.7867   79.6475 C.3         1 INH       0.1369
     20 C20       -19.4921   96.0461   80.3667 C.3         1 INH      -0.0087
     21 C21       -20.5614   96.7953   79.5033 C.3         1 INH      -0.0156
     22 C22       -21.8944   97.1217   80.2309 C.3         1 INH       0.0627
     23 N23       -21.9084   98.4197   80.7603 N.pl3       1 INH      -0.2723
     24 C24       -22.4228   98.8349   81.8604 C.cat       1 INH       0.2882
     25 N25       -22.4117  100.1033   82.0605 N.pl3       1 INH      -0.2849
     26 N26       -22.9710   98.1019   82.7538 N.pl3       1 INH      -0.2849
     27 C27       -17.8500   94.0269   80.3348 C.2         1 INH       0.2292
     28 O28       -17.2529   93.1991   79.6529 O.2         1 INH      -0.3823
     29 N29       -17.5058   94.2338   81.6052 N.am        1 INH      -0.2320
     30 C30       -16.5714   93.5779   82.3767 C.ar        1 INH       0.0663
     31 C31       -15.9393   92.3429   82.0644 C.ar        1 INH      -0.0413
     32 C32       -14.9794   91.7763   82.9266 C.ar        1 INH      -0.0755
     33 C33       -14.6421   92.4249   84.1274 C.ar        1 INH      -0.0772
     34 C34       -15.2728   93.6348   84.4655 C.ar        1 INH      -0.0755
     35 C35       -16.2299   94.1999   83.6008 C.ar        1 INH      -0.0413
     36 H1        -23.0314   90.5626   83.0311 H           1 INH       0.0303
     37 H2        -23.6150   90.1115   81.4215 H           1 INH       0.0303
     38 H3        -23.4338   91.8311   81.8546 H           1 INH       0.0303
     39 H4        -21.1738   89.7859   81.6349 H           1 INH       0.1023
     40 H5        -22.0892   90.2819   79.5632 H           1 INH       0.2052
     41 H6        -20.5048   90.6421   79.7227 H           1 INH       0.2052
     42 H7        -21.2152   91.9974   78.2462 H           1 INH       0.1101
     43 H8        -23.4958   93.4709   79.3981 H           1 INH       0.0368
     44 H9        -23.8227   91.7515   79.3265 H           1 INH       0.0368
     45 H10       -22.9090   93.4443   76.9665 H           1 INH       0.0429
     46 H11       -24.5847   93.0445   77.3110 H           1 INH       0.0429
     47 H12       -24.7044   90.2736   77.9252 H           1 INH       0.0557
     48 H13       -24.5112   88.1975   76.7098 H           1 INH       0.0599
     49 H14       -23.1577   88.0723   74.6990 H           1 INH       0.0559
     50 H15       -22.0301   90.0631   73.8753 H           1 INH       0.0599
     51 H16       -22.2190   92.1462   75.0710 H           1 INH       0.0557
     52 H17       -19.5933   93.3980   78.3191 H           1 INH       0.1885
     53 H18       -18.4050   95.2043   78.7581 H           1 INH       0.0805
     54 H19       -18.6755   96.7490   80.5859 H           1 INH       0.0314
     55 H20       -19.9184   95.7527   81.3266 H           1 INH       0.0314
     56 H21       -20.8306   96.1954   78.6296 H           1 INH       0.0301
     57 H22       -20.1323   97.7283   79.1144 H           1 INH       0.0301
     58 H23       -22.1082   96.3421   80.9717 H           1 INH       0.0689
     59 H24       -22.7006   97.0941   79.4906 H           1 INH       0.0689
     60 H25       -21.5613   99.0904   80.2058 H           1 INH       0.2642
     61 H26       -22.7992  100.4624   82.8349 H           1 INH       0.2615
     62 H27       -22.0210  100.6728   81.4305 H           1 INH       0.2615
     63 H28       -23.0143   97.1742   82.6456 H           1 INH       0.2615
     64 H29       -23.3339   98.4913   83.5253 H           1 INH       0.2615
     65 H30       -17.9573   94.9634   82.0578 H           1 INH       0.2257
     66 H31       -16.1703   91.8207   81.2195 H           1 INH       0.0502
     67 H32       -14.5393   90.8854   82.6848 H           1 INH       0.0577
     68 H33       -13.9468   92.0127   84.7520 H           1 INH       0.0487
     69 H34       -15.0376   94.1062   85.3437 H           1 INH       0.0577
     70 H35       -16.6605   95.0898   83.8681 H           1 INH       0.0502
@<TRIPOS>BOND
     1     1     2   1
     2     2     6   1
     3     2     3   1
     4     3     5  ar
     5     3     4  ar
     6     6     7   1
     7     7    16   1
     8     7     8   1
     9     8     9   1
    10     9    10   1
    11    10    15  ar
    12    10    11  ar
    13    11    12  ar
    14    12    13  ar
    15    13    14  ar
    16    14    15  ar
    17    16    18  am
    18    16    17   2
    19    18    19   1
    20    19    27   1
    21    19    20   1
    22    20    21   1
    23    21    22   1
    24    22    23   1
    25    23    24  ar
    26    24    26  ar
    27    24    25  ar
    28    27    29  am
    29    27    28   2
    30    29    30   1
    31    30    35  ar
    32    30    31  ar
    33    31    32  ar
    34    32    33  ar
    35    33    34  ar
    36    34    35  ar
    37     1    36   1
    38     1    37   1
    39     1    38   1
    40     2    39   1
    41     6    40   1
    42     6    41   1
    43     7    42   1
    44     8    43   1
    45     8    44   1
    46     9    45   1
    47     9    46   1
    48    11    47   1
    49    12    48   1
    50    13    49   1
    51    14    50   1
    52    15    51   1
    53    18    52   1
    54    19    53   1
    55    20    54   1
    56    20    55   1
    57    21    56   1
    58    21    57   1
    59    22    58   1
    60    22    59   1
    61    23    60   1
    62    25    61   1
    63    25    62   1
    64    26    63   1
    65    26    64   1
    66    29    65   1
    67    31    66   1
    68    32    67   1
    69    33    68   1
    70    34    69   1
    71    35    70   1
@<TRIPOS>SUBSTRUCTURE
     1  INH      1

