@<TRIPOS>MOLECULE
1sln_ligand_038
    70    71
SMALL
GAST_HUCK
****
This file was generated by PARSER (from files_GN.cpp)

@<TRIPOS>ATOM
      1 C1        -16.0329   96.9527   80.3064 C.3         1 INH      -0.0094
      2 C2        -15.2945   95.6103   80.0499 C.3         1 INH       0.0293
      3 C3        -14.5050   95.6776   78.8088 C.2         1 INH       0.0842
      4 O4        -13.2469   95.1704   78.7589 O.co2       1 INH      -0.5643
      5 O5        -15.0465   96.1552   77.6582 O.co2       1 INH      -0.5643
      6 N6        -16.1736   94.4021   79.9263 N.4         1 INH       0.2597
      7 C7        -17.0535   93.9040   81.0288 C.3         1 INH       0.0701
      8 C8        -16.4455   94.0655   82.4626 C.3         1 INH       0.0177
      9 C9        -17.1434   93.2793   83.6011 C.3         1 INH      -0.0119
     10 C10       -16.5113   93.5682   84.9235 C.ar        1 INH      -0.0427
     11 C11       -15.7018   92.6103   85.5867 C.ar        1 INH      -0.0603
     12 C12       -15.0842   92.9188   86.8112 C.ar        1 INH      -0.0686
     13 C13       -15.2623   94.1869   87.3932 C.ar        1 INH      -0.0687
     14 C14       -16.0567   95.1465   86.7480 C.ar        1 INH      -0.0686
     15 C15       -16.6781   94.8404   85.5259 C.ar        1 INH      -0.0603
     16 C16       -18.4183   94.4178   80.9244 C.2         1 INH       0.2270
     17 O17       -18.6150   95.5620   80.5370 O.2         1 INH      -0.3907
     18 N18       -19.4506   93.6359   81.2569 N.am        1 INH      -0.2605
     19 C19       -20.8470   94.0081   81.2489 C.3         1 INH       0.1369
     20 C20       -21.3686   94.0008   79.7615 C.3         1 INH      -0.0087
     21 C21       -22.1586   95.2635   79.2926 C.3         1 INH      -0.0156
     22 C22       -23.6998   95.2596   79.4995 C.3         1 INH       0.0627
     23 N23       -24.1104   95.6278   80.7940 N.pl3       1 INH      -0.2723
     24 C24       -25.3041   95.9294   81.1487 C.cat       1 INH       0.2882
     25 N25       -25.5199   96.2586   82.3660 N.pl3       1 INH      -0.2849
     26 N26       -26.3181   95.9461   80.3667 N.pl3       1 INH      -0.2849
     27 C27       -21.5574   93.1457   82.1957 C.2         1 INH       0.2292
     28 O28       -21.0058   92.8494   83.2539 O.2         1 INH      -0.3823
     29 N29       -22.8391   92.8178   82.0242 N.am        1 INH      -0.2320
     30 C30       -23.5703   91.9662   82.7949 C.ar        1 INH       0.0663
     31 C31       -23.2612   90.5889   82.8739 C.ar        1 INH      -0.0413
     32 C32       -24.0728   89.7148   83.6195 C.ar        1 INH      -0.0755
     33 C33       -25.1947   90.2109   84.3066 C.ar        1 INH      -0.0772
     34 C34       -25.5169   91.5777   84.2318 C.ar        1 INH      -0.0755
     35 C35       -24.7184   92.4515   83.4640 C.ar        1 INH      -0.0413
     36 H1        -15.3207   97.7821   80.3102 H           1 INH       0.0303
     37 H2        -16.5343   96.9552   81.2729 H           1 INH       0.0303
     38 H3        -16.7787   97.1321   79.5269 H           1 INH       0.0303
     39 H4        -14.5905   95.4488   80.8738 H           1 INH       0.1023
     40 H5        -15.5338   93.6333   79.7134 H           1 INH       0.2052
     41 H6        -16.7594   94.5394   79.1003 H           1 INH       0.2052
     42 H7        -17.0986   92.8196   80.8502 H           1 INH       0.1101
     43 H8        -16.4477   95.1294   82.7224 H           1 INH       0.0368
     44 H9        -15.3999   93.7313   82.4246 H           1 INH       0.0368
     45 H10       -17.0984   92.2048   83.3749 H           1 INH       0.0429
     46 H11       -18.2061   93.5498   83.6642 H           1 INH       0.0429
     47 H12       -15.5544   91.6850   85.1753 H           1 INH       0.0557
     48 H13       -14.5084   92.2163   87.2850 H           1 INH       0.0599
     49 H14       -14.8136   94.4085   88.2868 H           1 INH       0.0559
     50 H15       -16.1881   96.0709   87.1707 H           1 INH       0.0599
     51 H16       -17.2506   95.5550   85.0693 H           1 INH       0.0557
     52 H17       -19.2330   92.7424   81.5789 H           1 INH       0.1885
     53 H18       -20.9354   95.0229   81.6575 H           1 INH       0.0805
     54 H19       -21.9591   93.0991   79.5610 H           1 INH       0.0314
     55 H20       -20.5061   93.9388   79.0841 H           1 INH       0.0314
     56 H21       -21.9959   95.3505   78.2091 H           1 INH       0.0301
     57 H22       -21.7323   96.1660   79.7412 H           1 INH       0.0301
     58 H23       -24.1082   94.2752   79.2495 H           1 INH       0.0689
     59 H24       -24.1154   95.9849   78.7941 H           1 INH       0.0689
     60 H25       -23.4495   95.6708   81.4542 H           1 INH       0.2642
     61 H26       -26.3824   96.4906   82.6410 H           1 INH       0.2615
     62 H27       -24.8243   96.2630   82.9863 H           1 INH       0.2615
     63 H28       -26.2221   95.7249   79.4637 H           1 INH       0.2615
     64 H29       -27.1580   96.1901   80.6932 H           1 INH       0.2615
     65 H30       -23.3095   93.2431   81.2934 H           1 INH       0.2257
     66 H31       -22.4562   90.2103   82.3632 H           1 INH       0.0502
     67 H32       -23.8400   88.7212   83.6747 H           1 INH       0.0577
     68 H33       -25.7779   89.5808   84.8585 H           1 INH       0.0487
     69 H34       -26.3272   91.9416   84.7329 H           1 INH       0.0577
     70 H35       -24.9691   93.4408   83.4063 H           1 INH       0.0502
@<TRIPOS>BOND
     1     1     2   1
     2     2     6   1
     3     2     3   1
     4     3     5  ar
     5     3     4  ar
     6     6     7   1
     7     7    16   1
     8     7     8   1
     9     8     9   1
    10     9    10   1
    11    10    15  ar
    12    10    11  ar
    13    11    12  ar
    14    12    13  ar
    15    13    14  ar
    16    14    15  ar
    17    16    18  am
    18    16    17   2
    19    18    19   1
    20    19    27   1
    21    19    20   1
    22    20    21   1
    23    21    22   1
    24    22    23   1
    25    23    24  ar
    26    24    26  ar
    27    24    25  ar
    28    27    29  am
    29    27    28   2
    30    29    30   1
    31    30    35  ar
    32    30    31  ar
    33    31    32  ar
    34    32    33  ar
    35    33    34  ar
    36    34    35  ar
    37     1    36   1
    38     1    37   1
    39     1    38   1
    40     2    39   1
    41     6    40   1
    42     6    41   1
    43     7    42   1
    44     8    43   1
    45     8    44   1
    46     9    45   1
    47     9    46   1
    48    11    47   1
    49    12    48   1
    50    13    49   1
    51    14    50   1
    52    15    51   1
    53    18    52   1
    54    19    53   1
    55    20    54   1
    56    20    55   1
    57    21    56   1
    58    21    57   1
    59    22    58   1
    60    22    59   1
    61    23    60   1
    62    25    61   1
    63    25    62   1
    64    26    63   1
    65    26    64   1
    66    29    65   1
    67    31    66   1
    68    32    67   1
    69    33    68   1
    70    34    69   1
    71    35    70   1
@<TRIPOS>SUBSTRUCTURE
     1  INH      1

