@<TRIPOS>MOLECULE
1sln_ligand_041
    70    71
SMALL
GAST_HUCK
****
This file was generated by PARSER (from files_GN.cpp)

@<TRIPOS>ATOM
      1 C1        -22.3871   91.2428   80.3961 C.3         1 INH      -0.0094
      2 C2        -21.3264   90.7551   81.4129 C.3         1 INH       0.0293
      3 C3        -21.9084   90.6094   82.7593 C.2         1 INH       0.0842
      4 O4        -22.7386   89.5777   83.0297 O.co2       1 INH      -0.5643
      5 O5        -21.8606   91.6143   83.6591 O.co2       1 INH      -0.5643
      6 N6        -20.0173   91.4698   81.3797 N.4         1 INH       0.2597
      7 C7        -19.8044   92.8415   81.9383 C.3         1 INH       0.0701
      8 C8        -18.2960   93.2254   81.8495 C.3         1 INH       0.0177
      9 C9        -17.5590   92.8727   80.5159 C.3         1 INH      -0.0119
     10 C10       -16.5988   93.9232   80.0740 C.ar        1 INH      -0.0427
     11 C11       -15.4339   94.1957   80.8316 C.ar        1 INH      -0.0603
     12 C12       -14.5411   95.2097   80.4353 C.ar        1 INH      -0.0686
     13 C13       -14.8007   95.9646   79.2782 C.ar        1 INH      -0.0687
     14 C14       -15.9470   95.6968   78.5080 C.ar        1 INH      -0.0686
     15 C15       -16.8345   94.6779   78.8993 C.ar        1 INH      -0.0603
     16 C16       -20.6464   93.8807   81.3603 C.2         1 INH       0.2270
     17 O17       -21.1748   93.6639   80.2821 O.2         1 INH      -0.3907
     18 N18       -20.7461   95.0681   81.9515 N.am        1 INH      -0.2605
     19 C19       -21.4654   96.2381   81.5153 C.3         1 INH       0.1369
     20 C20       -20.6610   97.1164   80.5048 C.3         1 INH      -0.0087
     21 C21       -21.0889   98.6083   80.4122 C.3         1 INH      -0.0156
     22 C22       -20.6085   99.2566   79.0828 C.3         1 INH       0.0627
     23 N23       -21.1988  100.4893   78.7855 N.pl3       1 INH      -0.2723
     24 C24       -20.9134  101.6258   79.3024 C.cat       1 INH       0.2882
     25 N25       -21.5148  102.6561   78.8536 N.pl3       1 INH      -0.2849
     26 N26       -20.0532  101.8012   80.2318 N.pl3       1 INH      -0.2849
     27 C27       -22.7903   95.8700   81.0169 C.2         1 INH       0.2292
     28 O28       -22.8828   95.2737   79.9532 O.2         1 INH      -0.3823
     29 N29       -23.8771   96.1882   81.7126 N.am        1 INH      -0.2320
     30 C30       -25.1509   96.0220   81.2795 C.ar        1 INH       0.0663
     31 C31       -25.5878   96.6289   80.0832 C.ar        1 INH      -0.0413
     32 C32       -26.9240   96.4853   79.6594 C.ar        1 INH      -0.0755
     33 C33       -27.8264   95.7258   80.4281 C.ar        1 INH      -0.0772
     34 C34       -27.3913   95.1083   81.6137 C.ar        1 INH      -0.0755
     35 C35       -26.0638   95.2706   82.0506 C.ar        1 INH      -0.0413
     36 H1        -23.1972   90.5146   80.3076 H           1 INH       0.0303
     37 H2        -21.9382   91.3617   79.4101 H           1 INH       0.0303
     38 H3        -22.8185   92.1919   80.7112 H           1 INH       0.0303
     39 H4        -21.0746   89.7420   81.0944 H           1 INH       0.1023
     40 H5        -19.7212   91.4752   80.4035 H           1 INH       0.2052
     41 H6        -19.3595   90.8605   81.8670 H           1 INH       0.2052
     42 H7        -20.0036   92.7927   83.0098 H           1 INH       0.1101
     43 H8        -17.7685   92.7175   82.6632 H           1 INH       0.0368
     44 H9        -18.2140   94.2976   82.0575 H           1 INH       0.0368
     45 H10       -18.2875   92.6882   79.7250 H           1 INH       0.0429
     46 H11       -17.0160   91.9312   80.6400 H           1 INH       0.0429
     47 H12       -15.2317   93.6601   81.6786 H           1 INH       0.0557
     48 H13       -13.7016   95.3975   80.9879 H           1 INH       0.0599
     49 H14       -14.1550   96.7042   78.9927 H           1 INH       0.0559
     50 H15       -16.1313   96.2382   77.6608 H           1 INH       0.0599
     51 H16       -17.6622   94.5013   78.3251 H           1 INH       0.0557
     52 H17       -20.2348   95.1705   82.7701 H           1 INH       0.1885
     53 H18       -21.5857   96.8418   82.4200 H           1 INH       0.0805
     54 H19       -20.7573   96.6817   79.5106 H           1 INH       0.0314
     55 H20       -19.6005   97.0822   80.7731 H           1 INH       0.0314
     56 H21       -20.6782   99.1346   81.2729 H           1 INH       0.0301
     57 H22       -22.1776   98.6958   80.4634 H           1 INH       0.0301
     58 H23       -20.8424   98.5719   78.2643 H           1 INH       0.0689
     59 H24       -19.5210   99.3834   79.0763 H           1 INH       0.0689
     60 H25       -21.8324  100.4909   78.0956 H           1 INH       0.2642
     61 H26       -21.3217  103.5046   79.1999 H           1 INH       0.2615
     62 H27       -22.1442  102.5732   78.1651 H           1 INH       0.2615
     63 H28       -19.5869  101.0732   80.5879 H           1 INH       0.2615
     64 H29       -19.8837  102.6612   80.5629 H           1 INH       0.2615
     65 H30       -23.7523   96.5248   82.6165 H           1 INH       0.2257
     66 H31       -24.9453   97.1933   79.5238 H           1 INH       0.0502
     67 H32       -27.2395   96.9349   78.8016 H           1 INH       0.0577
     68 H33       -28.7919   95.6076   80.1149 H           1 INH       0.0487
     69 H34       -28.0441   94.5439   82.1634 H           1 INH       0.0577
     70 H35       -25.7575   94.8300   82.9233 H           1 INH       0.0502
@<TRIPOS>BOND
     1     1     2   1
     2     2     6   1
     3     2     3   1
     4     3     5  ar
     5     3     4  ar
     6     6     7   1
     7     7    16   1
     8     7     8   1
     9     8     9   1
    10     9    10   1
    11    10    15  ar
    12    10    11  ar
    13    11    12  ar
    14    12    13  ar
    15    13    14  ar
    16    14    15  ar
    17    16    18  am
    18    16    17   2
    19    18    19   1
    20    19    27   1
    21    19    20   1
    22    20    21   1
    23    21    22   1
    24    22    23   1
    25    23    24  ar
    26    24    26  ar
    27    24    25  ar
    28    27    29  am
    29    27    28   2
    30    29    30   1
    31    30    35  ar
    32    30    31  ar
    33    31    32  ar
    34    32    33  ar
    35    33    34  ar
    36    34    35  ar
    37     1    36   1
    38     1    37   1
    39     1    38   1
    40     2    39   1
    41     6    40   1
    42     6    41   1
    43     7    42   1
    44     8    43   1
    45     8    44   1
    46     9    45   1
    47     9    46   1
    48    11    47   1
    49    12    48   1
    50    13    49   1
    51    14    50   1
    52    15    51   1
    53    18    52   1
    54    19    53   1
    55    20    54   1
    56    20    55   1
    57    21    56   1
    58    21    57   1
    59    22    58   1
    60    22    59   1
    61    23    60   1
    62    25    61   1
    63    25    62   1
    64    26    63   1
    65    26    64   1
    66    29    65   1
    67    31    66   1
    68    32    67   1
    69    33    68   1
    70    34    69   1
    71    35    70   1
@<TRIPOS>SUBSTRUCTURE
     1  INH      1

