@<TRIPOS>MOLECULE
1sln_ligand_019
    70    71
SMALL
GAST_HUCK
****
This file was generated by PARSER (from files_GN.cpp)

@<TRIPOS>ATOM
      1 C1        -22.9952   90.5506   80.2954 C.3         1 INH      -0.0094
      2 C2        -22.2883   90.4655   81.6793 C.3         1 INH       0.0293
      3 C3        -23.0343   91.2043   82.7274 C.2         1 INH       0.0842
      4 O4        -24.3371   90.9297   82.9552 O.co2       1 INH      -0.5643
      5 O5        -22.4362   92.0804   83.5612 O.co2       1 INH      -0.5643
      6 N6        -20.8208   90.7353   81.5761 N.4         1 INH       0.2597
      7 C7        -20.2056   92.0993   81.6609 C.3         1 INH       0.0701
      8 C8        -18.6957   92.0320   81.2673 C.3         1 INH       0.0177
      9 C9        -17.8362   93.2595   81.7302 C.3         1 INH      -0.0119
     10 C10       -16.8032   92.9154   82.7517 C.ar        1 INH      -0.0427
     11 C11       -15.5712   92.3432   82.3525 C.ar        1 INH      -0.0603
     12 C12       -14.5920   92.0029   83.3055 C.ar        1 INH      -0.0686
     13 C13       -14.8343   92.2170   84.6727 C.ar        1 INH      -0.0687
     14 C14       -16.0550   92.7802   85.0862 C.ar        1 INH      -0.0686
     15 C15       -17.0311   93.1293   84.1327 C.ar        1 INH      -0.0603
     16 C16       -20.9417   93.1162   80.9071 C.2         1 INH       0.2270
     17 O17       -21.3817   94.0774   81.5239 O.2         1 INH      -0.3907
     18 N18       -21.1441   92.9922   79.5991 N.am        1 INH      -0.2605
     19 C19       -21.8365   93.9017   78.7189 C.3         1 INH       0.1369
     20 C20       -20.7962   94.8037   77.9589 C.3         1 INH      -0.0087
     21 C21       -20.7768   96.3129   78.3494 C.3         1 INH      -0.0156
     22 C22       -20.7400   96.6348   79.8785 C.3         1 INH       0.0627
     23 N23       -22.0309   96.7524   80.4179 N.pl3       1 INH      -0.2723
     24 C24       -22.3685   96.8358   81.6508 C.cat       1 INH       0.2882
     25 N25       -23.6139   96.9092   81.9238 N.pl3       1 INH      -0.2849
     26 N26       -21.5568   96.8179   82.6375 N.pl3       1 INH      -0.2849
     27 C27       -22.7394   93.1648   77.8260 C.2         1 INH       0.2292
     28 O28       -23.9389   93.4173   77.8788 O.2         1 INH      -0.3823
     29 N29       -22.2732   92.1896   77.0455 N.am        1 INH      -0.2320
     30 C30       -22.9586   91.3912   76.1604 C.ar        1 INH       0.0663
     31 C31       -24.0848   91.8045   75.4014 C.ar        1 INH      -0.0413
     32 C32       -24.7097   90.9270   74.4976 C.ar        1 INH      -0.0755
     33 C33       -24.2149   89.6226   74.3287 C.ar        1 INH      -0.0772
     34 C34       -23.0924   89.1991   75.0581 C.ar        1 INH      -0.0755
     35 C35       -22.4663   90.0795   75.9628 C.ar        1 INH      -0.0413
     36 H1        -23.8932   89.9207   80.2965 H           1 INH       0.0303
     37 H2        -22.3369   90.1893   79.4969 H           1 INH       0.0303
     38 H3        -23.2871   91.5789   80.0811 H           1 INH       0.0303
     39 H4        -22.3428   89.4148   81.9674 H           1 INH       0.1023
     40 H5        -20.5055   90.3053   80.7037 H           1 INH       0.2052
     41 H6        -20.3874   90.1953   82.3312 H           1 INH       0.2052
     42 H7        -20.2047   92.3623   82.7225 H           1 INH       0.1101
     43 H8        -18.6031   91.9162   80.1834 H           1 INH       0.0368
     44 H9        -18.2795   91.1162   81.6930 H           1 INH       0.0368
     45 H10       -18.4801   94.0512   82.1203 H           1 INH       0.0429
     46 H11       -17.3365   93.6983   80.8596 H           1 INH       0.0429
     47 H12       -15.3790   92.1769   81.3615 H           1 INH       0.0557
     48 H13       -13.7032   91.5994   83.0047 H           1 INH       0.0599
     49 H14       -14.1277   91.9577   85.3647 H           1 INH       0.0559
     50 H15       -16.2308   92.9387   86.0801 H           1 INH       0.0599
     51 H16       -17.9131   93.5357   84.4566 H           1 INH       0.0557
     52 H17       -20.7555   92.2101   79.1787 H           1 INH       0.1885
     53 H18       -22.4698   94.5506   79.3238 H           1 INH       0.0805
     54 H19       -20.9666   94.7564   76.8795 H           1 INH       0.0314
     55 H20       -19.7834   94.4130   78.1122 H           1 INH       0.0314
     56 H21       -21.6358   96.8068   77.8888 H           1 INH       0.0301
     57 H22       -19.8852   96.7514   77.8934 H           1 INH       0.0301
     58 H23       -20.2301   97.5863   80.0387 H           1 INH       0.0689
     59 H24       -20.1646   95.8538   80.3869 H           1 INH       0.0689
     60 H25       -22.7368   96.7442   79.8040 H           1 INH       0.2642
     61 H26       -23.8944   96.9197   82.8163 H           1 INH       0.2615
     62 H27       -24.2479   96.9145   81.2368 H           1 INH       0.2615
     63 H28       -20.6364   96.7294   82.5028 H           1 INH       0.2615
     64 H29       -21.8892   96.8729   83.5095 H           1 INH       0.2615
     65 H30       -21.3401   91.9726   77.1681 H           1 INH       0.2257
     66 H31       -24.4420   92.7570   75.4749 H           1 INH       0.0502
     67 H32       -25.5156   91.2423   73.9509 H           1 INH       0.0577
     68 H33       -24.6627   88.9900   73.6592 H           1 INH       0.0487
     69 H34       -22.7261   88.2572   74.9217 H           1 INH       0.0577
     70 H35       -21.6531   89.7518   76.4867 H           1 INH       0.0502
@<TRIPOS>BOND
     1     1     2   1
     2     2     6   1
     3     2     3   1
     4     3     5  ar
     5     3     4  ar
     6     6     7   1
     7     7    16   1
     8     7     8   1
     9     8     9   1
    10     9    10   1
    11    10    15  ar
    12    10    11  ar
    13    11    12  ar
    14    12    13  ar
    15    13    14  ar
    16    14    15  ar
    17    16    18  am
    18    16    17   2
    19    18    19   1
    20    19    27   1
    21    19    20   1
    22    20    21   1
    23    21    22   1
    24    22    23   1
    25    23    24  ar
    26    24    26  ar
    27    24    25  ar
    28    27    29  am
    29    27    28   2
    30    29    30   1
    31    30    35  ar
    32    30    31  ar
    33    31    32  ar
    34    32    33  ar
    35    33    34  ar
    36    34    35  ar
    37     1    36   1
    38     1    37   1
    39     1    38   1
    40     2    39   1
    41     6    40   1
    42     6    41   1
    43     7    42   1
    44     8    43   1
    45     8    44   1
    46     9    45   1
    47     9    46   1
    48    11    47   1
    49    12    48   1
    50    13    49   1
    51    14    50   1
    52    15    51   1
    53    18    52   1
    54    19    53   1
    55    20    54   1
    56    20    55   1
    57    21    56   1
    58    21    57   1
    59    22    58   1
    60    22    59   1
    61    23    60   1
    62    25    61   1
    63    25    62   1
    64    26    63   1
    65    26    64   1
    66    29    65   1
    67    31    66   1
    68    32    67   1
    69    33    68   1
    70    34    69   1
    71    35    70   1
@<TRIPOS>SUBSTRUCTURE
     1  INH      1

