@<TRIPOS>MOLECULE
1sln_ligand_031
    70    71
SMALL
GAST_HUCK
****
This file was generated by PARSER (from files_GN.cpp)

@<TRIPOS>ATOM
      1 C1        -24.6170   89.4409   81.7814 C.3         1 INH      -0.0094
      2 C2        -23.5937   89.9652   82.8264 C.3         1 INH       0.0293
      3 C3        -24.1528   91.0623   83.6455 C.2         1 INH       0.0842
      4 O4        -25.2655   90.8466   84.3994 O.co2       1 INH      -0.5643
      5 O5        -23.5003   92.2327   83.8217 O.co2       1 INH      -0.5643
      6 N6        -22.2368   90.1931   82.2433 N.4         1 INH       0.2597
      7 C7        -21.7664   91.3639   81.4261 C.3         1 INH       0.0701
      8 C8        -22.7826   92.4690   80.9398 C.3         1 INH       0.0177
      9 C9        -22.6543   92.8325   79.4210 C.3         1 INH      -0.0119
     10 C10       -23.0440   91.7213   78.5016 C.ar        1 INH      -0.0427
     11 C11       -24.4065   91.3830   78.3232 C.ar        1 INH      -0.0603
     12 C12       -24.7816   90.3059   77.4966 C.ar        1 INH      -0.0686
     13 C13       -23.7964   89.5458   76.8403 C.ar        1 INH      -0.0687
     14 C14       -22.4379   89.8833   76.9882 C.ar        1 INH      -0.0686
     15 C15       -22.0673   90.9703   77.8027 C.ar        1 INH      -0.0603
     16 C16       -20.5974   91.9600   82.0820 C.2         1 INH       0.2270
     17 O17       -20.7667   92.5130   83.1673 O.2         1 INH      -0.3907
     18 N18       -19.3931   91.8974   81.5120 N.am        1 INH      -0.2605
     19 C19       -18.1577   92.4709   81.9935 C.3         1 INH       0.1369
     20 C20       -17.0324   91.3801   82.0387 C.3         1 INH      -0.0087
     21 C21       -15.8833   91.6358   83.0596 C.3         1 INH      -0.0156
     22 C22       -16.3165   91.6171   84.5576 C.3         1 INH       0.0627
     23 N23       -16.5764   92.8902   85.0829 N.pl3       1 INH      -0.2723
     24 C24       -15.7263   93.7550   85.4975 C.cat       1 INH       0.2882
     25 N25       -16.1571   94.8724   85.9416 N.pl3       1 INH      -0.2849
     26 N26       -14.4605   93.5744   85.5060 N.pl3       1 INH      -0.2849
     27 C27       -17.7371   93.6079   81.1700 C.2         1 INH       0.2292
     28 O28       -17.0895   94.4968   81.7112 O.2         1 INH      -0.3823
     29 N29       -18.0276   93.6525   79.8717 N.am        1 INH      -0.2320
     30 C30       -17.6835   94.5707   78.9176 C.ar        1 INH       0.0663
     31 C31       -16.4934   95.3419   78.9316 C.ar        1 INH      -0.0413
     32 C32       -16.1919   96.2196   77.8732 C.ar        1 INH      -0.0755
     33 C33       -17.0735   96.3372   76.7823 C.ar        1 INH      -0.0772
     34 C34       -18.2518   95.5716   76.7498 C.ar        1 INH      -0.0755
     35 C35       -18.5487   94.6932   77.8070 C.ar        1 INH      -0.0413
     36 H1        -25.5148   89.0680   82.2908 H           1 INH       0.0303
     37 H2        -24.1851   88.6158   81.2063 H           1 INH       0.0303
     38 H3        -24.9196   90.2307   81.0892 H           1 INH       0.0303
     39 H4        -23.4387   89.1393   83.5264 H           1 INH       0.1023
     40 H5        -22.0793   89.3844   81.6367 H           1 INH       0.2052
     41 H6        -21.5754   90.0748   83.0176 H           1 INH       0.2052
     42 H7        -21.4037   90.8708   80.5192 H           1 INH       0.1101
     43 H8        -22.6386   93.3964   81.5025 H           1 INH       0.0368
     44 H9        -23.8120   92.1749   81.1343 H           1 INH       0.0368
     45 H10       -21.6220   93.1442   79.2388 H           1 INH       0.0429
     46 H11       -23.2842   93.6985   79.2062 H           1 INH       0.0429
     47 H12       -25.1372   91.9216   78.7916 H           1 INH       0.0557
     48 H13       -25.7693   90.0688   77.3771 H           1 INH       0.0599
     49 H14       -24.0682   88.7529   76.2495 H           1 INH       0.0559
     50 H15       -21.7235   89.3351   76.5054 H           1 INH       0.0599
     51 H16       -21.0759   91.1978   77.8973 H           1 INH       0.0557
     52 H17       -19.3437   91.4112   80.6736 H           1 INH       0.1885
     53 H18       -18.3175   92.8333   83.0118 H           1 INH       0.0805
     54 H19       -16.5942   91.2642   81.0419 H           1 INH       0.0314
     55 H20       -17.4780   90.4148   82.2864 H           1 INH       0.0314
     56 H21       -15.3815   92.5764   82.8173 H           1 INH       0.0301
     57 H22       -15.1428   90.8441   82.9131 H           1 INH       0.0301
     58 H23       -15.5538   91.1114   85.1624 H           1 INH       0.0689
     59 H24       -17.2259   91.0195   84.6677 H           1 INH       0.0689
     60 H25       -17.4780   93.1346   85.1476 H           1 INH       0.2642
     61 H26       -15.5519   95.5155   86.2457 H           1 INH       0.2615
     62 H27       -17.0762   95.0571   85.9683 H           1 INH       0.2615
     63 H28       -14.0921   92.7751   85.1926 H           1 INH       0.2615
     64 H29       -13.8954   94.2392   85.8384 H           1 INH       0.2615
     65 H30       -18.6124   92.9460   79.5534 H           1 INH       0.2257
     66 H31       -15.8160   95.2454   79.6930 H           1 INH       0.0502
     67 H32       -15.3263   96.7644   77.8917 H           1 INH       0.0577
     68 H33       -16.8468   96.9659   76.0095 H           1 INH       0.0487
     69 H34       -18.8875   95.6509   75.9563 H           1 INH       0.0577
     70 H35       -19.4098   94.1438   77.7655 H           1 INH       0.0502
@<TRIPOS>BOND
     1     1     2   1
     2     2     6   1
     3     2     3   1
     4     3     5  ar
     5     3     4  ar
     6     6     7   1
     7     7    16   1
     8     7     8   1
     9     8     9   1
    10     9    10   1
    11    10    15  ar
    12    10    11  ar
    13    11    12  ar
    14    12    13  ar
    15    13    14  ar
    16    14    15  ar
    17    16    18  am
    18    16    17   2
    19    18    19   1
    20    19    27   1
    21    19    20   1
    22    20    21   1
    23    21    22   1
    24    22    23   1
    25    23    24  ar
    26    24    26  ar
    27    24    25  ar
    28    27    29  am
    29    27    28   2
    30    29    30   1
    31    30    35  ar
    32    30    31  ar
    33    31    32  ar
    34    32    33  ar
    35    33    34  ar
    36    34    35  ar
    37     1    36   1
    38     1    37   1
    39     1    38   1
    40     2    39   1
    41     6    40   1
    42     6    41   1
    43     7    42   1
    44     8    43   1
    45     8    44   1
    46     9    45   1
    47     9    46   1
    48    11    47   1
    49    12    48   1
    50    13    49   1
    51    14    50   1
    52    15    51   1
    53    18    52   1
    54    19    53   1
    55    20    54   1
    56    20    55   1
    57    21    56   1
    58    21    57   1
    59    22    58   1
    60    22    59   1
    61    23    60   1
    62    25    61   1
    63    25    62   1
    64    26    63   1
    65    26    64   1
    66    29    65   1
    67    31    66   1
    68    32    67   1
    69    33    68   1
    70    34    69   1
    71    35    70   1
@<TRIPOS>SUBSTRUCTURE
     1  INH      1

