@<TRIPOS>MOLECULE
1sln_ligand_026
    70    71
SMALL
GAST_HUCK
****
This file was generated by PARSER (from files_GN.cpp)

@<TRIPOS>ATOM
      1 C1        -23.8407   89.8054   81.8581 C.3         1 INH      -0.0094
      2 C2        -22.4285   90.4510   81.9199 C.3         1 INH       0.0293
      3 C3        -22.3431   91.5538   82.9037 C.2         1 INH       0.0842
      4 O4        -23.4357   92.1576   83.4242 O.co2       1 INH      -0.5643
      5 O5        -21.1363   91.9612   83.3470 O.co2       1 INH      -0.5643
      6 N6        -21.8846   90.7656   80.5633 N.4         1 INH       0.2597
      7 C7        -21.9792   92.1052   79.9046 C.3         1 INH       0.0701
      8 C8        -23.4382   92.6456   79.7431 C.3         1 INH       0.0177
      9 C9        -23.6245   93.6344   78.5511 C.3         1 INH      -0.0119
     10 C10       -24.0723   92.9413   77.3103 C.ar        1 INH      -0.0427
     11 C11       -25.4194   92.5247   77.1796 C.ar        1 INH      -0.0603
     12 C12       -25.8390   91.7876   76.0573 C.ar        1 INH      -0.0686
     13 C13       -24.9160   91.4532   75.0511 C.ar        1 INH      -0.0687
     14 C14       -23.5797   91.8789   75.1556 C.ar        1 INH      -0.0686
     15 C15       -23.1608   92.6212   76.2760 C.ar        1 INH      -0.0603
     16 C16       -21.0353   93.0619   80.4899 C.2         1 INH       0.2270
     17 O17       -21.4002   93.8066   81.3920 O.2         1 INH      -0.3907
     18 N18       -19.7872   93.1302   80.0356 N.am        1 INH      -0.2605
     19 C19       -18.7190   93.9736   80.5122 C.3         1 INH       0.1369
     20 C20       -17.4449   93.1302   80.8404 C.3         1 INH      -0.0087
     21 C21       -17.6419   91.9226   81.8038 C.3         1 INH      -0.0156
     22 C22       -18.0325   92.2879   83.2646 C.3         1 INH       0.0627
     23 N23       -16.9428   92.4204   84.1359 N.pl3       1 INH      -0.2723
     24 C24       -16.3422   91.4896   84.7836 C.cat       1 INH       0.2882
     25 N25       -15.4319   91.8327   85.6083 N.pl3       1 INH      -0.2849
     26 N26       -16.5988   90.2420   84.6715 N.pl3       1 INH      -0.2849
     27 C27       -18.4178   95.0040   79.5167 C.2         1 INH       0.2292
     28 O28       -18.2785   96.1656   79.8884 O.2         1 INH      -0.3823
     29 N29       -18.3252   94.6885   78.2275 N.am        1 INH      -0.2320
     30 C30       -18.0900   95.5590   77.2080 C.ar        1 INH       0.0663
     31 C31       -16.8665   96.2591   77.1192 C.ar        1 INH      -0.0413
     32 C32       -16.6237   97.1309   76.0406 C.ar        1 INH      -0.0755
     33 C33       -17.6051   97.3167   75.0496 C.ar        1 INH      -0.0772
     34 C34       -18.8196   96.6099   75.1233 C.ar        1 INH      -0.0755
     35 C35       -19.0563   95.7238   76.1921 C.ar        1 INH      -0.0413
     36 H1        -24.0877   89.3536   82.8228 H           1 INH       0.0303
     37 H2        -23.8687   89.0201   81.1005 H           1 INH       0.0303
     38 H3        -24.6077   90.5435   81.6259 H           1 INH       0.0303
     39 H4        -21.7777   89.6615   82.3048 H           1 INH       0.1023
     40 H5        -22.3357   90.1086   79.9234 H           1 INH       0.2052
     41 H6        -20.8927   90.5059   80.5731 H           1 INH       0.2052
     42 H7        -21.6305   91.9084   78.8864 H           1 INH       0.1101
     43 H8        -23.7417   93.1435   80.6659 H           1 INH       0.0368
     44 H9        -24.1159   91.8025   79.6094 H           1 INH       0.0368
     45 H10       -22.6945   94.1796   78.3685 H           1 INH       0.0429
     46 H11       -24.3694   94.3891   78.8210 H           1 INH       0.0429
     47 H12       -26.1020   92.7468   77.9092 H           1 INH       0.0557
     48 H13       -26.8124   91.4862   75.9796 H           1 INH       0.0599
     49 H14       -25.2165   90.8998   74.2458 H           1 INH       0.0559
     50 H15       -22.9091   91.6390   74.4226 H           1 INH       0.0599
     51 H16       -22.1808   92.9063   76.3432 H           1 INH       0.0557
     52 H17       -19.5688   92.5477   79.2909 H           1 INH       0.1885
     53 H18       -19.0213   94.4690   81.4401 H           1 INH       0.0805
     54 H19       -16.6814   93.7879   81.2664 H           1 INH       0.0314
     55 H20       -17.0431   92.7315   79.9059 H           1 INH       0.0314
     56 H21       -16.7151   91.3407   81.8203 H           1 INH       0.0301
     57 H22       -18.4081   91.2652   81.3859 H           1 INH       0.0301
     58 H23       -18.7258   91.5373   83.6487 H           1 INH       0.0689
     59 H24       -18.5805   93.2302   83.2798 H           1 INH       0.0689
     60 H25       -16.6593   93.2945   84.3098 H           1 INH       0.2642
     61 H26       -14.9782   91.1836   86.1070 H           1 INH       0.2615
     62 H27       -15.2175   92.7362   85.7229 H           1 INH       0.2615
     63 H28       -17.2351   89.9451   84.0561 H           1 INH       0.2615
     64 H29       -16.1467   89.6138   85.1985 H           1 INH       0.2615
     65 H30       -18.5194   93.7716   77.9806 H           1 INH       0.2257
     66 H31       -16.1419   96.1159   77.8250 H           1 INH       0.0502
     67 H32       -15.7283   97.6184   75.9696 H           1 INH       0.0577
     68 H33       -17.4300   97.9561   74.2708 H           1 INH       0.0487
     69 H34       -19.5262   96.7345   74.3937 H           1 INH       0.0577
     70 H35       -19.9426   95.2131   76.2320 H           1 INH       0.0502
@<TRIPOS>BOND
     1     1     2   1
     2     2     6   1
     3     2     3   1
     4     3     5  ar
     5     3     4  ar
     6     6     7   1
     7     7    16   1
     8     7     8   1
     9     8     9   1
    10     9    10   1
    11    10    15  ar
    12    10    11  ar
    13    11    12  ar
    14    12    13  ar
    15    13    14  ar
    16    14    15  ar
    17    16    18  am
    18    16    17   2
    19    18    19   1
    20    19    27   1
    21    19    20   1
    22    20    21   1
    23    21    22   1
    24    22    23   1
    25    23    24  ar
    26    24    26  ar
    27    24    25  ar
    28    27    29  am
    29    27    28   2
    30    29    30   1
    31    30    35  ar
    32    30    31  ar
    33    31    32  ar
    34    32    33  ar
    35    33    34  ar
    36    34    35  ar
    37     1    36   1
    38     1    37   1
    39     1    38   1
    40     2    39   1
    41     6    40   1
    42     6    41   1
    43     7    42   1
    44     8    43   1
    45     8    44   1
    46     9    45   1
    47     9    46   1
    48    11    47   1
    49    12    48   1
    50    13    49   1
    51    14    50   1
    52    15    51   1
    53    18    52   1
    54    19    53   1
    55    20    54   1
    56    20    55   1
    57    21    56   1
    58    21    57   1
    59    22    58   1
    60    22    59   1
    61    23    60   1
    62    25    61   1
    63    25    62   1
    64    26    63   1
    65    26    64   1
    66    29    65   1
    67    31    66   1
    68    32    67   1
    69    33    68   1
    70    34    69   1
    71    35    70   1
@<TRIPOS>SUBSTRUCTURE
     1  INH      1

