@<TRIPOS>MOLECULE
1sln_ligand_028
    70    71
SMALL
GAST_HUCK
****
This file was generated by PARSER (from files_GN.cpp)

@<TRIPOS>ATOM
      1 C1        -25.7727   89.3485   82.0699 C.3         1 INH      -0.0094
      2 C2        -24.7696   89.7424   83.1864 C.3         1 INH       0.0293
      3 C3        -25.5045   90.1212   84.4177 C.2         1 INH       0.0842
      4 O4        -25.9911   89.1494   85.2306 O.co2       1 INH      -0.5643
      5 O5        -25.7806   91.4102   84.7308 O.co2       1 INH      -0.5643
      6 N6        -23.8721   90.8614   82.7963 N.4         1 INH       0.2597
      7 C7        -22.8045   90.6894   81.7583 C.3         1 INH       0.0701
      8 C8        -23.3759   91.0395   80.3461 C.3         1 INH       0.0177
      9 C9        -22.4070   90.9524   79.1248 C.3         1 INH      -0.0119
     10 C10       -23.0519   90.5555   77.8379 C.ar        1 INH      -0.0427
     11 C11       -22.3568   89.7612   76.8928 C.ar        1 INH      -0.0603
     12 C12       -22.9602   89.3631   75.6887 C.ar        1 INH      -0.0686
     13 C13       -24.2897   89.7409   75.4088 C.ar        1 INH      -0.0687
     14 C14       -24.9893   90.5529   76.3207 C.ar        1 INH      -0.0686
     15 C15       -24.3726   90.9665   77.5157 C.ar        1 INH      -0.0603
     16 C16       -21.6517   91.5344   82.1053 C.2         1 INH       0.2270
     17 O17       -21.7253   92.3072   83.0564 O.2         1 INH      -0.3907
     18 N18       -20.4933   91.4071   81.4529 N.am        1 INH      -0.2605
     19 C19       -19.3004   92.2127   81.5691 C.3         1 INH       0.1369
     20 C20       -19.4432   93.5602   80.7815 C.3         1 INH      -0.0087
     21 C21       -18.2062   94.5041   80.8332 C.3         1 INH      -0.0156
     22 C22       -17.2925   94.4831   79.5682 C.3         1 INH       0.0627
     23 N23       -15.9335   94.6643   79.8374 N.pl3       1 INH      -0.2723
     24 C24       -15.3396   95.7118   80.2885 C.cat       1 INH       0.2882
     25 N25       -14.0804   95.6433   80.4794 N.pl3       1 INH      -0.2849
     26 N26       -15.9293   96.8163   80.5801 N.pl3       1 INH      -0.2849
     27 C27       -18.8486   92.4189   82.9463 C.2         1 INH       0.2292
     28 O28       -19.6697   92.8010   83.7788 O.2         1 INH      -0.3823
     29 N29       -17.5622   92.2569   83.2641 N.am        1 INH      -0.2320
     30 C30       -16.9166   92.6417   84.4049 C.ar        1 INH       0.0663
     31 C31       -15.9502   91.7655   84.9543 C.ar        1 INH      -0.0413
     32 C32       -15.1998   92.1421   86.0858 C.ar        1 INH      -0.0755
     33 C33       -15.4011   93.4000   86.6791 C.ar        1 INH      -0.0772
     34 C34       -16.3421   94.2906   86.1301 C.ar        1 INH      -0.0755
     35 C35       -17.0971   93.9103   85.0049 C.ar        1 INH      -0.0413
     36 H1        -26.5980   88.7514   82.4699 H           1 INH       0.0303
     37 H2        -25.2669   88.7424   81.3168 H           1 INH       0.0303
     38 H3        -26.1913   90.2401   81.5987 H           1 INH       0.0303
     39 H4        -24.1469   88.8802   83.4437 H           1 INH       0.1023
     40 H5        -23.3850   91.1212   83.6595 H           1 INH       0.2052
     41 H6        -24.4486   91.6649   82.5344 H           1 INH       0.2052
     42 H7        -22.4683   89.6456   81.7594 H           1 INH       0.1101
     43 H8        -23.7816   92.0556   80.3806 H           1 INH       0.0368
     44 H9        -24.2095   90.3661   80.1472 H           1 INH       0.0368
     45 H10       -21.6148   90.2423   79.3668 H           1 INH       0.0429
     46 H11       -21.9381   91.9266   78.9791 H           1 INH       0.0429
     47 H12       -21.3915   89.4715   77.0717 H           1 INH       0.0557
     48 H13       -22.4492   88.7852   75.0167 H           1 INH       0.0599
     49 H14       -24.7389   89.4337   74.5402 H           1 INH       0.0559
     50 H15       -25.9519   90.8357   76.1122 H           1 INH       0.0599
     51 H16       -24.8990   91.5581   78.1571 H           1 INH       0.0557
     52 H17       -20.4619   90.7216   80.7641 H           1 INH       0.1885
     53 H18       -18.5416   91.6278   81.0416 H           1 INH       0.0805
     54 H19       -20.2971   94.1172   81.1818 H           1 INH       0.0314
     55 H20       -19.6693   93.3426   79.7310 H           1 INH       0.0314
     56 H21       -17.6227   94.2771   81.7242 H           1 INH       0.0301
     57 H22       -18.5738   95.5256   80.9680 H           1 INH       0.0301
     58 H23       -17.6272   95.2399   78.8550 H           1 INH       0.0689
     59 H24       -17.3789   93.5199   79.0647 H           1 INH       0.0689
     60 H25       -15.3778   93.9261   79.6806 H           1 INH       0.2642
     61 H26       -13.6123   96.3796   80.8158 H           1 INH       0.2615
     62 H27       -13.6217   94.8520   80.2895 H           1 INH       0.2615
     63 H28       -16.8442   96.9085   80.4417 H           1 INH       0.2615
     64 H29       -15.4326   97.5363   80.9048 H           1 INH       0.2615
     65 H30       -17.0123   91.8139   82.5980 H           1 INH       0.2257
     66 H31       -15.7902   90.8456   84.5376 H           1 INH       0.0502
     67 H32       -14.5109   91.4966   86.4852 H           1 INH       0.0577
     68 H33       -14.8624   93.6729   87.5074 H           1 INH       0.0487
     69 H34       -16.4770   95.2148   86.5491 H           1 INH       0.0577
     70 H35       -17.7528   94.5870   84.6085 H           1 INH       0.0502
@<TRIPOS>BOND
     1     1     2   1
     2     2     6   1
     3     2     3   1
     4     3     5  ar
     5     3     4  ar
     6     6     7   1
     7     7    16   1
     8     7     8   1
     9     8     9   1
    10     9    10   1
    11    10    15  ar
    12    10    11  ar
    13    11    12  ar
    14    12    13  ar
    15    13    14  ar
    16    14    15  ar
    17    16    18  am
    18    16    17   2
    19    18    19   1
    20    19    27   1
    21    19    20   1
    22    20    21   1
    23    21    22   1
    24    22    23   1
    25    23    24  ar
    26    24    26  ar
    27    24    25  ar
    28    27    29  am
    29    27    28   2
    30    29    30   1
    31    30    35  ar
    32    30    31  ar
    33    31    32  ar
    34    32    33  ar
    35    33    34  ar
    36    34    35  ar
    37     1    36   1
    38     1    37   1
    39     1    38   1
    40     2    39   1
    41     6    40   1
    42     6    41   1
    43     7    42   1
    44     8    43   1
    45     8    44   1
    46     9    45   1
    47     9    46   1
    48    11    47   1
    49    12    48   1
    50    13    49   1
    51    14    50   1
    52    15    51   1
    53    18    52   1
    54    19    53   1
    55    20    54   1
    56    20    55   1
    57    21    56   1
    58    21    57   1
    59    22    58   1
    60    22    59   1
    61    23    60   1
    62    25    61   1
    63    25    62   1
    64    26    63   1
    65    26    64   1
    66    29    65   1
    67    31    66   1
    68    32    67   1
    69    33    68   1
    70    34    69   1
    71    35    70   1
@<TRIPOS>SUBSTRUCTURE
     1  INH      1

