@<TRIPOS>MOLECULE
1sln_ligand_027
    70    71
SMALL
GAST_HUCK
****
This file was generated by PARSER (from files_GN.cpp)

@<TRIPOS>ATOM
      1 C1        -22.8585   90.5961   80.4414 C.3         1 INH      -0.0094
      2 C2        -22.4273   90.4117   81.9147 C.3         1 INH       0.0293
      3 C3        -23.4296   91.0074   82.8314 C.2         1 INH       0.0842
      4 O4        -24.6647   90.4672   82.9277 O.co2       1 INH      -0.5643
      5 O5        -23.1306   92.0161   83.6797 O.co2       1 INH      -0.5643
      6 N6        -20.9977   90.7509   82.1673 N.4         1 INH       0.2597
      7 C7        -20.4573   92.1495   82.2744 C.3         1 INH       0.0701
      8 C8        -19.0415   92.0473   82.9231 C.3         1 INH       0.0177
      9 C9        -18.3860   93.3855   83.3821 C.3         1 INH      -0.0119
     10 C10       -17.1786   93.3019   84.2634 C.ar        1 INH      -0.0427
     11 C11       -16.5761   94.5143   84.6890 C.ar        1 INH      -0.0603
     12 C12       -15.4763   94.5100   85.5665 C.ar        1 INH      -0.0686
     13 C13       -14.9469   93.2937   86.0258 C.ar        1 INH      -0.0687
     14 C14       -15.5037   92.0814   85.5917 C.ar        1 INH      -0.0686
     15 C15       -16.6059   92.0846   84.7172 C.ar        1 INH      -0.0603
     16 C16       -20.4634   92.9243   81.0351 C.2         1 INH       0.2270
     17 O17       -20.6254   94.1369   81.1199 O.2         1 INH      -0.3907
     18 N18       -20.3164   92.3513   79.8460 N.am        1 INH      -0.2605
     19 C19       -20.3767   92.9836   78.5479 C.3         1 INH       0.1369
     20 C20       -21.7240   93.7710   78.3686 C.3         1 INH      -0.0087
     21 C21       -22.2931   93.9259   76.9283 C.3         1 INH      -0.0156
     22 C22       -22.7596   92.6341   76.2043 C.3         1 INH       0.0627
     23 N23       -23.5226   91.7810   77.0123 N.pl3       1 INH      -0.2723
     24 C24       -23.4192   90.5123   77.1543 C.cat       1 INH       0.2882
     25 N25       -24.2523   89.9288   77.9320 N.pl3       1 INH      -0.2849
     26 N26       -22.5550   89.7648   76.5728 N.pl3       1 INH      -0.2849
     27 C27       -19.1217   93.6956   78.2681 C.2         1 INH       0.2292
     28 O28       -18.0795   93.1152   78.5640 O.2         1 INH      -0.3823
     29 N29       -19.0814   94.8460   77.6021 N.am        1 INH      -0.2320
     30 C30       -17.9973   95.5860   77.2045 C.ar        1 INH       0.0663
     31 C31       -18.0876   96.2577   75.9620 C.ar        1 INH      -0.0413
     32 C32       -17.0344   97.0667   75.4983 C.ar        1 INH      -0.0755
     33 C33       -15.8767   97.2317   76.2789 C.ar        1 INH      -0.0772
     34 C34       -15.7770   96.5852   77.5246 C.ar        1 INH      -0.0755
     35 C35       -16.8312   95.7704   77.9836 C.ar        1 INH      -0.0413
     36 H1        -23.8068   90.0830   80.2550 H           1 INH       0.0303
     37 H2        -22.1129   90.1666   79.7701 H           1 INH       0.0303
     38 H3        -22.9910   91.6520   80.2168 H           1 INH       0.0303
     39 H4        -22.4732   89.3332   82.1035 H           1 INH       0.1023
     40 H5        -20.4411   90.2622   81.4558 H           1 INH       0.2052
     41 H6        -20.7830   90.2835   83.0496 H           1 INH       0.2052
     42 H7        -21.0708   92.6965   82.9893 H           1 INH       0.1101
     43 H8        -18.3645   91.5291   82.2359 H           1 INH       0.0368
     44 H9        -19.1526   91.4293   83.8192 H           1 INH       0.0368
     45 H10       -19.1508   93.9474   83.9255 H           1 INH       0.0429
     46 H11       -18.1130   93.9588   82.4901 H           1 INH       0.0429
     47 H12       -16.9432   95.4127   84.3677 H           1 INH       0.0557
     48 H13       -15.0640   95.3953   85.8716 H           1 INH       0.0599
     49 H14       -14.1531   93.2897   86.6705 H           1 INH       0.0559
     50 H15       -15.1114   91.1929   85.9135 H           1 INH       0.0599
     51 H16       -16.9782   91.1821   84.4205 H           1 INH       0.0557
     52 H17       -20.1548   91.3886   79.8442 H           1 INH       0.1885
     53 H18       -20.4149   92.1451   77.8568 H           1 INH       0.0805
     54 H19       -21.6023   94.7712   78.7960 H           1 INH       0.0314
     55 H20       -22.5026   93.2864   78.9562 H           1 INH       0.0314
     56 H21       -21.5536   94.4207   76.2974 H           1 INH       0.0301
     57 H22       -23.1527   94.5995   76.9928 H           1 INH       0.0301
     58 H23       -21.8884   92.1430   75.7738 H           1 INH       0.0689
     59 H24       -23.3953   92.9343   75.3679 H           1 INH       0.0689
     60 H25       -24.2180   92.1901   77.4859 H           1 INH       0.2642
     61 H26       -24.2046   89.0051   78.0599 H           1 INH       0.2615
     62 H27       -24.9008   90.4276   78.3823 H           1 INH       0.2615
     63 H28       -21.9311   90.1302   75.9847 H           1 INH       0.2615
     64 H29       -22.5540   88.8434   76.7288 H           1 INH       0.2615
     65 H30       -19.9333   95.1765   77.2802 H           1 INH       0.2257
     66 H31       -18.9233   96.1578   75.3810 H           1 INH       0.0502
     67 H32       -17.1103   97.5422   74.5956 H           1 INH       0.0577
     68 H33       -15.1104   97.8229   75.9443 H           1 INH       0.0487
     69 H34       -14.9432   96.7186   78.1003 H           1 INH       0.0577
     70 H35       -16.7487   95.3400   78.9070 H           1 INH       0.0502
@<TRIPOS>BOND
     1     1     2   1
     2     2     6   1
     3     2     3   1
     4     3     5  ar
     5     3     4  ar
     6     6     7   1
     7     7    16   1
     8     7     8   1
     9     8     9   1
    10     9    10   1
    11    10    15  ar
    12    10    11  ar
    13    11    12  ar
    14    12    13  ar
    15    13    14  ar
    16    14    15  ar
    17    16    18  am
    18    16    17   2
    19    18    19   1
    20    19    27   1
    21    19    20   1
    22    20    21   1
    23    21    22   1
    24    22    23   1
    25    23    24  ar
    26    24    26  ar
    27    24    25  ar
    28    27    29  am
    29    27    28   2
    30    29    30   1
    31    30    35  ar
    32    30    31  ar
    33    31    32  ar
    34    32    33  ar
    35    33    34  ar
    36    34    35  ar
    37     1    36   1
    38     1    37   1
    39     1    38   1
    40     2    39   1
    41     6    40   1
    42     6    41   1
    43     7    42   1
    44     8    43   1
    45     8    44   1
    46     9    45   1
    47     9    46   1
    48    11    47   1
    49    12    48   1
    50    13    49   1
    51    14    50   1
    52    15    51   1
    53    18    52   1
    54    19    53   1
    55    20    54   1
    56    20    55   1
    57    21    56   1
    58    21    57   1
    59    22    58   1
    60    22    59   1
    61    23    60   1
    62    25    61   1
    63    25    62   1
    64    26    63   1
    65    26    64   1
    66    29    65   1
    67    31    66   1
    68    32    67   1
    69    33    68   1
    70    34    69   1
    71    35    70   1
@<TRIPOS>SUBSTRUCTURE
     1  INH      1

