@<TRIPOS>MOLECULE
1sln_ligand_004
    70    71
SMALL
GAST_HUCK
****
This file was generated by PARSER (from files_GN.cpp)

@<TRIPOS>ATOM
      1 C1        -21.0761   93.1393   80.3856 C.3         1 INH      -0.0094
      2 C2        -20.6644   92.0137   81.3746 C.3         1 INH       0.0293
      3 C3        -21.0159   92.3699   82.7676 C.2         1 INH       0.0842
      4 O4        -22.3107   92.4371   83.1458 O.co2       1 INH      -0.5643
      5 O5        -20.0779   92.3788   83.7365 O.co2       1 INH      -0.5643
      6 N6        -19.2428   91.5870   81.2335 N.4         1 INH       0.2597
      7 C7        -18.1150   92.5390   81.4982 C.3         1 INH       0.0701
      8 C8        -16.8332   91.7095   81.8391 C.3         1 INH       0.0177
      9 C9        -15.6052   92.5475   82.3065 C.3         1 INH      -0.0119
     10 C10       -15.6439   92.9122   83.7469 C.ar        1 INH      -0.0427
     11 C11       -15.1565   92.0055   84.7216 C.ar        1 INH      -0.0603
     12 C12       -15.1293   92.3619   86.0826 C.ar        1 INH      -0.0686
     13 C13       -15.5977   93.6239   86.4885 C.ar        1 INH      -0.0687
     14 C14       -16.0961   94.5294   85.5338 C.ar        1 INH      -0.0686
     15 C15       -16.1124   94.1768   84.1695 C.ar        1 INH      -0.0603
     16 C16       -17.8900   93.4150   80.3511 C.2         1 INH       0.2270
     17 O17       -17.6285   92.8828   79.2758 O.2         1 INH      -0.3907
     18 N18       -17.8943   94.7412   80.5161 N.am        1 INH      -0.2605
     19 C19       -17.6680   95.7946   79.5583 C.3         1 INH       0.1369
     20 C20       -16.7119   95.4676   78.3662 C.3         1 INH      -0.0087
     21 C21       -16.2278   96.6644   77.4948 C.3         1 INH      -0.0156
     22 C22       -17.2116   97.0998   76.3688 C.3         1 INH       0.0627
     23 N23       -16.6298   97.9635   75.4367 N.pl3       1 INH      -0.2723
     24 C24       -16.3619   99.2107   75.5550 C.cat       1 INH       0.2882
     25 N25       -16.5940   99.9096   76.5999 N.pl3       1 INH      -0.2849
     26 N26       -15.8321   99.7968   74.5480 N.pl3       1 INH      -0.2849
     27 C27       -18.9641   96.3293   79.1658 C.2         1 INH       0.2292
     28 O28       -19.2864   97.4446   79.5659 O.2         1 INH      -0.3823
     29 N29       -19.7655   95.6286   78.3718 N.am        1 INH      -0.2320
     30 C30       -21.0331   95.9473   77.9688 C.ar        1 INH       0.0663
     31 C31       -22.0137   96.4833   78.8440 C.ar        1 INH      -0.0413
     32 C32       -23.3129   96.7684   78.3837 C.ar        1 INH      -0.0755
     33 C33       -23.6556   96.5190   77.0422 C.ar        1 INH      -0.0772
     34 C34       -22.6990   95.9707   76.1672 C.ar        1 INH      -0.0755
     35 C35       -21.4043   95.6742   76.6327 C.ar        1 INH      -0.0413
     36 H1        -22.1621   93.2500   80.3598 H           1 INH       0.0303
     37 H2        -20.7337   92.8986   79.3752 H           1 INH       0.0303
     38 H3        -20.6466   94.0995   80.6757 H           1 INH       0.0303
     39 H4        -21.2585   91.1291   81.1124 H           1 INH       0.1023
     40 H5        -19.1534   91.1922   80.2943 H           1 INH       0.2052
     41 H6        -19.1387   90.8073   81.8870 H           1 INH       0.2052
     42 H7        -18.3685   93.1239   82.3971 H           1 INH       0.1101
     43 H8        -16.5472   91.1252   80.9546 H           1 INH       0.0368
     44 H9        -17.0801   90.9827   82.6210 H           1 INH       0.0368
     45 H10       -15.4979   93.4441   81.6897 H           1 INH       0.0429
     46 H11       -14.7059   91.9588   82.1270 H           1 INH       0.0429
     47 H12       -14.8092   91.0852   84.4431 H           1 INH       0.0557
     48 H13       -14.7616   91.7039   86.7746 H           1 INH       0.0599
     49 H14       -15.5817   93.8811   87.4793 H           1 INH       0.0559
     50 H15       -16.4349   95.4481   85.8298 H           1 INH       0.0599
     51 H16       -16.4702   94.8535   83.4918 H           1 INH       0.0557
     52 H17       -18.0921   95.0470   81.4229 H           1 INH       0.1885
     53 H18       -17.1435   96.5601   80.1400 H           1 INH       0.0805
     54 H19       -17.1637   94.7238   77.7056 H           1 INH       0.0314
     55 H20       -15.8173   95.0082   78.7936 H           1 INH       0.0314
     56 H21       -15.2980   96.3580   77.0048 H           1 INH       0.0301
     57 H22       -15.9869   97.5177   78.1345 H           1 INH       0.0301
     58 H23       -18.1136   97.5516   76.7905 H           1 INH       0.0689
     59 H24       -17.5189   96.2091   75.8154 H           1 INH       0.0689
     60 H25       -16.4209   97.5818   74.6068 H           1 INH       0.2642
     61 H26       -16.3760  100.8172   76.6126 H           1 INH       0.2615
     62 H27       -16.9815   99.5160   77.3527 H           1 INH       0.2615
     63 H28       -15.6508   99.3066   73.7719 H           1 INH       0.2615
     64 H29       -15.6247  100.7061   74.5855 H           1 INH       0.2615
     65 H30       -19.3966   94.8163   77.9933 H           1 INH       0.2257
     66 H31       -21.7955   96.6491   79.8289 H           1 INH       0.0502
     67 H32       -24.0108   97.1546   79.0262 H           1 INH       0.0577
     68 H33       -24.5974   96.7321   76.7085 H           1 INH       0.0487
     69 H34       -22.9492   95.7861   75.1934 H           1 INH       0.0577
     70 H35       -20.7227   95.2769   75.9800 H           1 INH       0.0502
@<TRIPOS>BOND
     1     1     2   1
     2     2     6   1
     3     2     3   1
     4     3     5  ar
     5     3     4  ar
     6     6     7   1
     7     7    16   1
     8     7     8   1
     9     8     9   1
    10     9    10   1
    11    10    15  ar
    12    10    11  ar
    13    11    12  ar
    14    12    13  ar
    15    13    14  ar
    16    14    15  ar
    17    16    18  am
    18    16    17   2
    19    18    19   1
    20    19    27   1
    21    19    20   1
    22    20    21   1
    23    21    22   1
    24    22    23   1
    25    23    24  ar
    26    24    26  ar
    27    24    25  ar
    28    27    29  am
    29    27    28   2
    30    29    30   1
    31    30    35  ar
    32    30    31  ar
    33    31    32  ar
    34    32    33  ar
    35    33    34  ar
    36    34    35  ar
    37     1    36   1
    38     1    37   1
    39     1    38   1
    40     2    39   1
    41     6    40   1
    42     6    41   1
    43     7    42   1
    44     8    43   1
    45     8    44   1
    46     9    45   1
    47     9    46   1
    48    11    47   1
    49    12    48   1
    50    13    49   1
    51    14    50   1
    52    15    51   1
    53    18    52   1
    54    19    53   1
    55    20    54   1
    56    20    55   1
    57    21    56   1
    58    21    57   1
    59    22    58   1
    60    22    59   1
    61    23    60   1
    62    25    61   1
    63    25    62   1
    64    26    63   1
    65    26    64   1
    66    29    65   1
    67    31    66   1
    68    32    67   1
    69    33    68   1
    70    34    69   1
    71    35    70   1
@<TRIPOS>SUBSTRUCTURE
     1  INH      1

