@<TRIPOS>MOLECULE
1sln_ligand_042
    70    71
SMALL
GAST_HUCK
****
This file was generated by PARSER (from files_GN.cpp)

@<TRIPOS>ATOM
      1 C1        -21.2689   96.5262   77.4698 C.3         1 INH      -0.0094
      2 C2        -19.7605   96.5538   77.8154 C.3         1 INH       0.0293
      3 C3        -18.9551   96.6211   76.5672 C.2         1 INH       0.0842
      4 O4        -18.2253   97.7241   76.2751 O.co2       1 INH      -0.5643
      5 O5        -18.9279   95.5828   75.6940 O.co2       1 INH      -0.5643
      6 N6        -19.4399   95.3858   78.6798 N.4         1 INH       0.2597
      7 C7        -18.0269   95.0177   78.9853 C.3         1 INH       0.0701
      8 C8        -17.1954   96.1450   79.6780 C.3         1 INH       0.0177
      9 C9        -15.6519   95.8843   79.7060 C.3         1 INH      -0.0119
     10 C10       -14.8617   97.1142   79.4269 C.ar        1 INH      -0.0427
     11 C11       -14.3579   97.3728   78.1312 C.ar        1 INH      -0.0603
     12 C12       -13.6655   98.5653   77.8583 C.ar        1 INH      -0.0686
     13 C13       -13.4725   99.5180   78.8747 C.ar        1 INH      -0.0687
     14 C14       -13.9809   99.2791   80.1652 C.ar        1 INH      -0.0686
     15 C15       -14.6755   98.0850   80.4374 C.ar        1 INH      -0.0603
     16 C16       -18.0617   93.7836   79.7591 C.2         1 INH       0.2270
     17 O17       -17.6274   92.7668   79.2337 O.2         1 INH      -0.3907
     18 N18       -18.5955   93.7407   80.9758 N.am        1 INH      -0.2605
     19 C19       -18.8026   92.5654   81.7865 C.3         1 INH       0.1369
     20 C20       -17.6629   92.5117   82.8620 C.3         1 INH      -0.0087
     21 C21       -17.6737   93.6717   83.9183 C.3         1 INH      -0.0156
     22 C22       -16.3429   94.4579   84.1091 C.3         1 INH       0.0627
     23 N23       -15.4858   93.9261   85.0824 N.pl3       1 INH      -0.2723
     24 C24       -15.5956   94.0214   86.3582 C.cat       1 INH       0.2882
     25 N25       -14.6960   93.4671   87.0776 N.pl3       1 INH      -0.2849
     26 N26       -16.5298   94.6366   86.9800 N.pl3       1 INH      -0.2849
     27 C27       -20.1774   92.5518   82.2979 C.2         1 INH       0.2292
     28 O28       -20.3716   92.4421   83.4999 O.2         1 INH      -0.3823
     29 N29       -21.1976   92.7496   81.4613 N.am        1 INH      -0.2320
     30 C30       -22.5264   92.9049   81.7749 C.ar        1 INH       0.0663
     31 C31       -23.2772   93.8335   81.0173 C.ar        1 INH      -0.0413
     32 C32       -24.6250   94.0932   81.3227 C.ar        1 INH      -0.0755
     33 C33       -25.2529   93.4105   82.3801 C.ar        1 INH      -0.0772
     34 C34       -24.5317   92.4599   83.1232 C.ar        1 INH      -0.0755
     35 C35       -23.1843   92.1998   82.8159 C.ar        1 INH      -0.0413
     36 H1        -21.5477   97.4172   76.9041 H           1 INH       0.0303
     37 H2        -21.8552   96.5037   78.3865 H           1 INH       0.0303
     38 H3        -21.5159   95.6416   76.8772 H           1 INH       0.0303
     39 H4        -19.5787   97.4616   78.3904 H           1 INH       0.1023
     40 H5        -19.8630   94.5678   78.2340 H           1 INH       0.2052
     41 H6        -19.9260   95.5352   79.5670 H           1 INH       0.2052
     42 H7        -17.5463   94.8200   78.0247 H           1 INH       0.1101
     43 H8        -17.5538   96.3081   80.7030 H           1 INH       0.0368
     44 H9        -17.3816   97.0774   79.1357 H           1 INH       0.0368
     45 H10       -15.3838   95.1135   78.9753 H           1 INH       0.0429
     46 H11       -15.3687   95.4791   80.6830 H           1 INH       0.0429
     47 H12       -14.5043   96.7040   77.3751 H           1 INH       0.0557
     48 H13       -13.3093   98.7485   76.9179 H           1 INH       0.0599
     49 H14       -12.9738  100.3891   78.6766 H           1 INH       0.0559
     50 H15       -13.8537   99.9772   80.9050 H           1 INH       0.0599
     51 H16       -15.0485   97.9324   81.3780 H           1 INH       0.0557
     52 H17       -18.8885   94.5837   81.3610 H           1 INH       0.1885
     53 H18       -18.7013   91.6610   81.1762 H           1 INH       0.0805
     54 H19       -16.7008   92.4851   82.3396 H           1 INH       0.0314
     55 H20       -17.7359   91.5594   83.3964 H           1 INH       0.0314
     56 H21       -17.9786   93.2631   84.8844 H           1 INH       0.0301
     57 H22       -18.4469   94.3935   83.6443 H           1 INH       0.0301
     58 H23       -16.5780   95.4960   84.3619 H           1 INH       0.0689
     59 H24       -15.8023   94.4854   83.1609 H           1 INH       0.0689
     60 H25       -14.7308   93.4734   84.7655 H           1 INH       0.2642
     61 H26       -14.7433   93.5210   88.0110 H           1 INH       0.2615
     62 H27       -13.9831   93.0113   86.6774 H           1 INH       0.2615
     63 H28       -17.2070   95.0814   86.5189 H           1 INH       0.2615
     64 H29       -16.5331   94.6466   87.9138 H           1 INH       0.2615
     65 H30       -20.9598   92.9274   80.5341 H           1 INH       0.2257
     66 H31       -22.8333   94.3482   80.2516 H           1 INH       0.0502
     67 H32       -25.1464   94.7911   80.7873 H           1 INH       0.0577
     68 H33       -26.2277   93.6091   82.6105 H           1 INH       0.0487
     69 H34       -24.9865   91.9615   83.8909 H           1 INH       0.0577
     70 H35       -22.6901   91.4833   83.3522 H           1 INH       0.0502
@<TRIPOS>BOND
     1     1     2   1
     2     2     6   1
     3     2     3   1
     4     3     5  ar
     5     3     4  ar
     6     6     7   1
     7     7    16   1
     8     7     8   1
     9     8     9   1
    10     9    10   1
    11    10    15  ar
    12    10    11  ar
    13    11    12  ar
    14    12    13  ar
    15    13    14  ar
    16    14    15  ar
    17    16    18  am
    18    16    17   2
    19    18    19   1
    20    19    27   1
    21    19    20   1
    22    20    21   1
    23    21    22   1
    24    22    23   1
    25    23    24  ar
    26    24    26  ar
    27    24    25  ar
    28    27    29  am
    29    27    28   2
    30    29    30   1
    31    30    35  ar
    32    30    31  ar
    33    31    32  ar
    34    32    33  ar
    35    33    34  ar
    36    34    35  ar
    37     1    36   1
    38     1    37   1
    39     1    38   1
    40     2    39   1
    41     6    40   1
    42     6    41   1
    43     7    42   1
    44     8    43   1
    45     8    44   1
    46     9    45   1
    47     9    46   1
    48    11    47   1
    49    12    48   1
    50    13    49   1
    51    14    50   1
    52    15    51   1
    53    18    52   1
    54    19    53   1
    55    20    54   1
    56    20    55   1
    57    21    56   1
    58    21    57   1
    59    22    58   1
    60    22    59   1
    61    23    60   1
    62    25    61   1
    63    25    62   1
    64    26    63   1
    65    26    64   1
    66    29    65   1
    67    31    66   1
    68    32    67   1
    69    33    68   1
    70    34    69   1
    71    35    70   1
@<TRIPOS>SUBSTRUCTURE
     1  INH      1

