@<TRIPOS>MOLECULE
1sln_ligand_013
    70    71
SMALL
GAST_HUCK
****
This file was generated by PARSER (from files_GN.cpp)

@<TRIPOS>ATOM
      1 C1        -20.9479   92.2367   79.5767 C.3         1 INH      -0.0094
      2 C2        -20.7695   92.0487   81.1056 C.3         1 INH       0.0293
      3 C3        -21.2385   93.2123   81.8904 C.2         1 INH       0.0842
      4 O4        -21.0941   93.2186   83.2310 O.co2       1 INH      -0.5643
      5 O5        -21.5585   94.3794   81.2782 O.co2       1 INH      -0.5643
      6 N6        -19.3872   91.5751   81.4289 N.4         1 INH       0.2597
      7 C7        -18.2412   92.5051   81.6888 C.3         1 INH       0.0701
      8 C8        -16.9766   91.6594   82.0510 C.3         1 INH       0.0177
      9 C9        -15.7028   92.4547   82.4642 C.3         1 INH      -0.0119
     10 C10       -15.7971   93.0860   83.8105 C.ar        1 INH      -0.0427
     11 C11       -16.3641   94.3722   83.9721 C.ar        1 INH      -0.0603
     12 C12       -16.4998   94.9448   85.2509 C.ar        1 INH      -0.0686
     13 C13       -16.0468   94.2480   86.3849 C.ar        1 INH      -0.0687
     14 C14       -15.4494   92.9838   86.2397 C.ar        1 INH      -0.0686
     15 C15       -15.3303   92.4047   84.9629 C.ar        1 INH      -0.0603
     16 C16       -17.9880   93.3825   80.5524 C.2         1 INH       0.2270
     17 O17       -17.5874   92.8842   79.5029 O.2         1 INH      -0.3907
     18 N18       -18.1325   94.6953   80.6869 N.am        1 INH      -0.2605
     19 C19       -17.9869   95.7327   79.7001 C.3         1 INH       0.1369
     20 C20       -16.8431   95.5332   78.6577 C.3         1 INH      -0.0087
     21 C21       -15.4774   95.1203   79.2794 C.3         1 INH      -0.0156
     22 C22       -14.2862   95.9412   78.7224 C.3         1 INH       0.0627
     23 N23       -13.0623   95.4068   79.1452 N.pl3       1 INH      -0.2723
     24 C24       -12.2385   94.6893   78.4797 C.cat       1 INH       0.2882
     25 N25       -11.1504   94.3489   79.0529 N.pl3       1 INH      -0.2849
     26 N26       -12.4287   94.2746   77.2849 N.pl3       1 INH      -0.2849
     27 C27       -19.2579   96.0510   79.0626 C.2         1 INH       0.2292
     28 O28       -19.7220   95.2661   78.2426 O.2         1 INH      -0.3823
     29 N29       -19.8376   97.2255   79.2841 N.am        1 INH      -0.2320
     30 C30       -21.0404   97.6628   78.8123 C.ar        1 INH       0.0663
     31 C31       -22.2530   96.9820   79.0746 C.ar        1 INH      -0.0413
     32 C32       -23.4781   97.4952   78.6072 C.ar        1 INH      -0.0755
     33 C33       -23.4988   98.6857   77.8626 C.ar        1 INH      -0.0772
     34 C34       -22.3032   99.3801   77.6049 C.ar        1 INH      -0.0755
     35 C35       -21.0807   98.8755   78.0916 C.ar        1 INH      -0.0413
     36 H1        -21.9708   92.5464   79.3445 H           1 INH       0.0303
     37 H2        -20.7487   91.2970   79.0572 H           1 INH       0.0303
     38 H3        -20.2587   92.9941   79.1998 H           1 INH       0.0303
     39 H4        -21.4387   91.2256   81.3744 H           1 INH       0.1023
     40 H5        -19.1143   90.9497   80.6677 H           1 INH       0.2052
     41 H6        -19.4730   90.9863   82.2581 H           1 INH       0.2052
     42 H7        -18.5000   93.0853   82.5753 H           1 INH       0.1101
     43 H8        -16.7216   91.0292   81.1894 H           1 INH       0.0368
     44 H9        -17.2191   90.9775   82.8717 H           1 INH       0.0368
     45 H10       -15.4709   93.2077   81.7087 H           1 INH       0.0429
     46 H11       -14.8590   91.7557   82.4612 H           1 INH       0.0429
     47 H12       -16.6925   94.8988   83.1600 H           1 INH       0.0557
     48 H13       -16.9297   95.8666   85.3560 H           1 INH       0.0599
     49 H14       -16.1481   94.6638   87.3169 H           1 INH       0.0559
     50 H15       -15.1063   92.4839   87.0635 H           1 INH       0.0599
     51 H16       -14.9024   91.4799   84.8801 H           1 INH       0.0557
     52 H17       -18.3742   95.0054   81.5809 H           1 INH       0.1885
     53 H18       -17.6906   96.6078   80.2867 H           1 INH       0.0805
     54 H19       -16.7272   96.4835   78.1296 H           1 INH       0.0314
     55 H20       -17.1301   94.7867   77.9121 H           1 INH       0.0314
     56 H21       -15.3061   94.0587   79.0725 H           1 INH       0.0301
     57 H22       -15.5007   95.2460   80.3659 H           1 INH       0.0301
     58 H23       -14.3500   96.9653   79.1065 H           1 INH       0.0689
     59 H24       -14.3582   96.0077   77.6338 H           1 INH       0.0689
     60 H25       -12.8170   95.6097   80.0282 H           1 INH       0.2642
     61 H26       -10.5260   93.8216   78.6008 H           1 INH       0.2615
     62 H27       -10.9721   94.6280   79.9259 H           1 INH       0.2615
     63 H28       -13.2287   94.4568   76.8423 H           1 INH       0.2615
     64 H29       -11.7787   93.7561   76.8570 H           1 INH       0.2615
     65 H30       -19.3170   97.8802   79.7823 H           1 INH       0.2257
     66 H31       -22.2593   96.1202   79.6281 H           1 INH       0.0502
     67 H32       -24.3477   97.0028   78.8232 H           1 INH       0.0577
     68 H33       -24.3888   99.0578   77.5226 H           1 INH       0.0487
     69 H34       -22.3195  100.2528   77.0795 H           1 INH       0.0577
     70 H35       -20.2176   99.3900   77.8997 H           1 INH       0.0502
@<TRIPOS>BOND
     1     1     2   1
     2     2     6   1
     3     2     3   1
     4     3     5  ar
     5     3     4  ar
     6     6     7   1
     7     7    16   1
     8     7     8   1
     9     8     9   1
    10     9    10   1
    11    10    15  ar
    12    10    11  ar
    13    11    12  ar
    14    12    13  ar
    15    13    14  ar
    16    14    15  ar
    17    16    18  am
    18    16    17   2
    19    18    19   1
    20    19    27   1
    21    19    20   1
    22    20    21   1
    23    21    22   1
    24    22    23   1
    25    23    24  ar
    26    24    26  ar
    27    24    25  ar
    28    27    29  am
    29    27    28   2
    30    29    30   1
    31    30    35  ar
    32    30    31  ar
    33    31    32  ar
    34    32    33  ar
    35    33    34  ar
    36    34    35  ar
    37     1    36   1
    38     1    37   1
    39     1    38   1
    40     2    39   1
    41     6    40   1
    42     6    41   1
    43     7    42   1
    44     8    43   1
    45     8    44   1
    46     9    45   1
    47     9    46   1
    48    11    47   1
    49    12    48   1
    50    13    49   1
    51    14    50   1
    52    15    51   1
    53    18    52   1
    54    19    53   1
    55    20    54   1
    56    20    55   1
    57    21    56   1
    58    21    57   1
    59    22    58   1
    60    22    59   1
    61    23    60   1
    62    25    61   1
    63    25    62   1
    64    26    63   1
    65    26    64   1
    66    29    65   1
    67    31    66   1
    68    32    67   1
    69    33    68   1
    70    34    69   1
    71    35    70   1
@<TRIPOS>SUBSTRUCTURE
     1  INH      1

