@<TRIPOS>MOLECULE
1sln_ligand_002
    70    71
SMALL
GAST_HUCK
****
This file was generated by PARSER (from files_GN.cpp)

@<TRIPOS>ATOM
      1 C1        -23.4226   90.3532   80.6035 C.3         1 INH      -0.0094
      2 C2        -22.4952   90.3175   81.8451 C.3         1 INH       0.0293
      3 C3        -23.1087   91.0360   82.9810 C.2         1 INH       0.0842
      4 O4        -24.3025   90.6353   83.4879 O.co2       1 INH      -0.5643
      5 O5        -22.4449   92.0059   83.6498 O.co2       1 INH      -0.5643
      6 N6        -21.0566   90.6243   81.5650 N.4         1 INH       0.2597
      7 C7        -20.4514   91.9595   81.2382 C.3         1 INH       0.0701
      8 C8        -21.4179   93.0883   80.7386 C.3         1 INH       0.0177
      9 C9        -20.8430   94.5280   80.5335 C.3         1 INH      -0.0119
     10 C10       -20.0528   94.7447   79.2848 C.ar        1 INH      -0.0427
     11 C11       -20.6043   95.4540   78.1889 C.ar        1 INH      -0.0603
     12 C12       -19.8330   95.7215   77.0403 C.ar        1 INH      -0.0686
     13 C13       -18.4962   95.2914   76.9744 C.ar        1 INH      -0.0687
     14 C14       -17.9364   94.5825   78.0512 C.ar        1 INH      -0.0686
     15 C15       -18.7113   94.3119   79.1937 C.ar        1 INH      -0.0603
     16 C16       -19.5885   92.3874   82.3383 C.2         1 INH       0.2270
     17 O17       -20.1098   92.7511   83.3930 O.2         1 INH      -0.3907
     18 N18       -18.2683   92.4441   82.1691 N.am        1 INH      -0.2605
     19 C19       -17.2973   93.0594   83.0391 C.3         1 INH       0.1369
     20 C20       -16.7840   92.0234   84.0947 C.3         1 INH      -0.0087
     21 C21       -15.7891   92.5544   85.1690 C.3         1 INH      -0.0156
     22 C22       -16.1761   93.9219   85.8065 C.3         1 INH       0.0627
     23 N23       -15.8482   94.0575   87.1559 N.pl3       1 INH      -0.2723
     24 C24       -14.6929   94.2241   87.6864 C.cat       1 INH       0.2882
     25 N25       -14.6613   94.3440   88.9577 N.pl3       1 INH      -0.2849
     26 N26       -13.5874   94.2852   87.0459 N.pl3       1 INH      -0.2849
     27 C27       -16.2789   93.6658   82.1837 C.2         1 INH       0.2292
     28 O28       -15.1710   93.1449   82.0984 O.2         1 INH      -0.3823
     29 N29       -16.5516   94.8001   81.5509 N.am        1 INH      -0.2320
     30 C30       -15.8031   95.4928   80.6326 C.ar        1 INH       0.0663
     31 C31       -14.9611   94.8889   79.6641 C.ar        1 INH      -0.0413
     32 C32       -14.2296   95.6800   78.7534 C.ar        1 INH      -0.0755
     33 C33       -14.3305   97.0796   78.7974 C.ar        1 INH      -0.0772
     34 C34       -15.1858   97.6902   79.7301 C.ar        1 INH      -0.0755
     35 C35       -15.9302   96.8970   80.6231 C.ar        1 INH      -0.0413
     36 H1        -24.3247   89.7579   80.7873 H           1 INH       0.0303
     37 H2        -22.9138   89.9352   79.7316 H           1 INH       0.0303
     38 H3        -23.7282   91.3794   80.3731 H           1 INH       0.0303
     39 H4        -22.4716   89.2702   82.1667 H           1 INH       0.1023
     40 H5        -20.8081   90.0148   80.7813 H           1 INH       0.2052
     41 H6        -20.5355   90.2477   82.3658 H           1 INH       0.2052
     42 H7        -19.8141   91.7549   80.3745 H           1 INH       0.1101
     43 H8        -22.2316   93.1772   81.4656 H           1 INH       0.0368
     44 H9        -21.8626   92.7782   79.7903 H           1 INH       0.0368
     45 H10       -20.2394   94.8211   81.3941 H           1 INH       0.0429
     46 H11       -21.7015   95.2093   80.5340 H           1 INH       0.0429
     47 H12       -21.5673   95.7908   78.2210 H           1 INH       0.0557
     48 H13       -20.2426   96.2364   76.2562 H           1 INH       0.0599
     49 H14       -17.9286   95.4971   76.1458 H           1 INH       0.0559
     50 H15       -16.9648   94.2705   78.0039 H           1 INH       0.0599
     51 H16       -18.2763   93.8160   79.9663 H           1 INH       0.0557
     52 H17       -17.9340   92.1110   81.3232 H           1 INH       0.1885
     53 H18       -17.7883   93.8725   83.5802 H           1 INH       0.0805
     54 H19       -16.3178   91.1836   83.5706 H           1 INH       0.0314
     55 H20       -17.6533   91.6199   84.6220 H           1 INH       0.0314
     56 H21       -14.7908   92.6359   84.7312 H           1 INH       0.0301
     57 H22       -15.7268   91.7950   85.9555 H           1 INH       0.0301
     58 H23       -17.2590   94.0403   85.7603 H           1 INH       0.0689
     59 H24       -15.7359   94.7384   85.2265 H           1 INH       0.0689
     60 H25       -16.5716   94.0390   87.7502 H           1 INH       0.2642
     61 H26       -13.8479   94.4676   89.4006 H           1 INH       0.2615
     62 H27       -15.4588   94.3140   89.4448 H           1 INH       0.2615
     63 H28       -13.5740   94.2063   86.1154 H           1 INH       0.2615
     64 H29       -12.7866   94.4092   87.5112 H           1 INH       0.2615
     65 H30       -17.3895   95.2295   81.8131 H           1 INH       0.2257
     66 H31       -14.8941   93.8735   79.5932 H           1 INH       0.0502
     67 H32       -13.6282   95.2340   78.0585 H           1 INH       0.0577
     68 H33       -13.7908   97.6548   78.1455 H           1 INH       0.0487
     69 H34       -15.2645   98.7091   79.7597 H           1 INH       0.0577
     70 H35       -16.5509   97.3566   81.2935 H           1 INH       0.0502
@<TRIPOS>BOND
     1     1     2   1
     2     2     6   1
     3     2     3   1
     4     3     5  ar
     5     3     4  ar
     6     6     7   1
     7     7    16   1
     8     7     8   1
     9     8     9   1
    10     9    10   1
    11    10    15  ar
    12    10    11  ar
    13    11    12  ar
    14    12    13  ar
    15    13    14  ar
    16    14    15  ar
    17    16    18  am
    18    16    17   2
    19    18    19   1
    20    19    27   1
    21    19    20   1
    22    20    21   1
    23    21    22   1
    24    22    23   1
    25    23    24  ar
    26    24    26  ar
    27    24    25  ar
    28    27    29  am
    29    27    28   2
    30    29    30   1
    31    30    35  ar
    32    30    31  ar
    33    31    32  ar
    34    32    33  ar
    35    33    34  ar
    36    34    35  ar
    37     1    36   1
    38     1    37   1
    39     1    38   1
    40     2    39   1
    41     6    40   1
    42     6    41   1
    43     7    42   1
    44     8    43   1
    45     8    44   1
    46     9    45   1
    47     9    46   1
    48    11    47   1
    49    12    48   1
    50    13    49   1
    51    14    50   1
    52    15    51   1
    53    18    52   1
    54    19    53   1
    55    20    54   1
    56    20    55   1
    57    21    56   1
    58    21    57   1
    59    22    58   1
    60    22    59   1
    61    23    60   1
    62    25    61   1
    63    25    62   1
    64    26    63   1
    65    26    64   1
    66    29    65   1
    67    31    66   1
    68    32    67   1
    69    33    68   1
    70    34    69   1
    71    35    70   1
@<TRIPOS>SUBSTRUCTURE
     1  INH      1

