@<TRIPOS>MOLECULE
1sln_ligand_048
    70    71
SMALL
GAST_HUCK
****
This file was generated by PARSER (from files_GN.cpp)

@<TRIPOS>ATOM
      1 C1        -20.8405   94.3570   81.2274 C.3         1 INH      -0.0094
      2 C2        -20.7384   92.8480   80.8637 C.3         1 INH       0.0293
      3 C3        -21.4117   91.9824   81.8598 C.2         1 INH       0.0842
      4 O4        -21.4096   92.2562   83.1905 O.co2       1 INH      -0.5643
      5 O5        -22.0833   90.8867   81.4446 O.co2       1 INH      -0.5643
      6 N6        -19.3985   92.2869   80.5040 N.4         1 INH       0.2597
      7 C7        -18.0793   92.7612   81.0531 C.3         1 INH       0.0701
      8 C8        -17.7351   94.1791   80.4789 C.3         1 INH       0.0177
      9 C9        -16.2244   94.5607   80.3601 C.3         1 INH      -0.0119
     10 C10       -15.9400   95.6100   79.3256 C.ar        1 INH      -0.0427
     11 C11       -16.8245   96.7055   79.1346 C.ar        1 INH      -0.0603
     12 C12       -16.5738   97.6690   78.1387 C.ar        1 INH      -0.0686
     13 C13       -15.4317   97.5690   77.3314 C.ar        1 INH      -0.0687
     14 C14       -14.5316   96.5096   77.5217 C.ar        1 INH      -0.0686
     15 C15       -14.7840   95.5420   78.5161 C.ar        1 INH      -0.0603
     16 C16       -17.9259   92.6509   82.5128 C.2         1 INH       0.2270
     17 O17       -18.8676   92.2390   83.1766 O.2         1 INH      -0.3907
     18 N18       -16.7840   92.9552   83.1154 N.am        1 INH      -0.2605
     19 C19       -16.5685   93.0132   84.5504 C.3         1 INH       0.1369
     20 C20       -15.5513   91.9212   85.0106 C.3         1 INH      -0.0087
     21 C21       -14.0516   92.3610   85.1886 C.3         1 INH      -0.0156
     22 C22       -13.3624   91.8355   86.4909 C.3         1 INH       0.0627
     23 N23       -12.9910   92.7966   87.4447 N.pl3       1 INH      -0.2723
     24 C24       -13.7003   93.3815   88.3379 C.cat       1 INH       0.2882
     25 N25       -14.9424   93.1691   88.5481 N.pl3       1 INH      -0.2849
     26 N26       -13.1289   94.2290   89.1033 N.pl3       1 INH      -0.2849
     27 C27       -16.1986   94.3379   85.0306 C.2         1 INH       0.2292
     28 O28       -16.0923   95.2681   84.2302 O.2         1 INH      -0.3823
     29 N29       -15.9956   94.5224   86.3334 N.am        1 INH      -0.2320
     30 C30       -15.3713   95.5668   86.9593 C.ar        1 INH       0.0663
     31 C31       -13.9801   95.7893   86.8150 C.ar        1 INH      -0.0413
     32 C32       -13.3445   96.8606   87.4787 C.ar        1 INH      -0.0755
     33 C33       -14.0881   97.7023   88.3283 C.ar        1 INH      -0.0772
     34 C34       -15.4507   97.4522   88.5320 C.ar        1 INH      -0.0755
     35 C35       -16.0915   96.3932   87.8521 C.ar        1 INH      -0.0413
     36 H1        -21.8789   94.6265   81.4283 H           1 INH       0.0303
     37 H2        -20.4954   94.9715   80.3985 H           1 INH       0.0303
     38 H3        -20.2555   94.5981   82.1152 H           1 INH       0.0303
     39 H4        -21.3426   92.7438   79.9614 H           1 INH       0.1023
     40 H5        -19.3169   92.3812   79.4903 H           1 INH       0.2052
     41 H6        -19.4368   91.2767   80.6726 H           1 INH       0.2052
     42 H7        -17.3532   92.0621   80.6255 H           1 INH       0.1101
     43 H8        -18.2104   94.9389   81.0958 H           1 INH       0.0368
     44 H9        -18.1717   94.2550   79.4781 H           1 INH       0.0368
     45 H10       -15.6562   93.6537   80.1377 H           1 INH       0.0429
     46 H11       -15.8772   94.9402   81.3222 H           1 INH       0.0429
     47 H12       -17.6652   96.7971   79.7059 H           1 INH       0.0557
     48 H13       -17.2371   98.4382   77.9956 H           1 INH       0.0599
     49 H14       -15.2541   98.2697   76.6037 H           1 INH       0.0559
     50 H15       -13.6934   96.4388   76.9376 H           1 INH       0.0599
     51 H16       -14.1023   94.7851   78.6470 H           1 INH       0.0557
     52 H17       -16.0215   93.1877   82.5472 H           1 INH       0.1885
     53 H18       -17.5046   92.7757   85.0518 H           1 INH       0.0805
     54 H19       -15.5937   91.0574   84.3489 H           1 INH       0.0314
     55 H20       -15.9196   91.5478   85.9547 H           1 INH       0.0314
     56 H21       -13.9727   93.4517   85.1832 H           1 INH       0.0301
     57 H22       -13.4977   91.9901   84.3177 H           1 INH       0.0301
     58 H23       -12.4303   91.3468   86.1909 H           1 INH       0.0689
     59 H24       -13.9871   91.0851   86.9658 H           1 INH       0.0689
     60 H25       -12.0880   93.0425   87.4500 H           1 INH       0.2642
     61 H26       -15.4131   93.6681   89.1937 H           1 INH       0.2615
     62 H27       -15.3798   92.4899   88.0956 H           1 INH       0.2615
     63 H28       -12.2116   94.3994   89.0040 H           1 INH       0.2615
     64 H29       -13.6083   94.6455   89.7901 H           1 INH       0.2615
     65 H30       -16.3005   93.8096   86.9281 H           1 INH       0.2257
     66 H31       -13.4044   95.1847   86.2277 H           1 INH       0.0502
     67 H32       -12.3463   97.0479   87.3411 H           1 INH       0.0577
     68 H33       -13.6465   98.5125   88.7896 H           1 INH       0.0487
     69 H34       -16.0009   98.0606   89.1434 H           1 INH       0.0577
     70 H35       -17.0890   96.2280   87.9961 H           1 INH       0.0502
@<TRIPOS>BOND
     1     1     2   1
     2     2     6   1
     3     2     3   1
     4     3     5  ar
     5     3     4  ar
     6     6     7   1
     7     7    16   1
     8     7     8   1
     9     8     9   1
    10     9    10   1
    11    10    15  ar
    12    10    11  ar
    13    11    12  ar
    14    12    13  ar
    15    13    14  ar
    16    14    15  ar
    17    16    18  am
    18    16    17   2
    19    18    19   1
    20    19    27   1
    21    19    20   1
    22    20    21   1
    23    21    22   1
    24    22    23   1
    25    23    24  ar
    26    24    26  ar
    27    24    25  ar
    28    27    29  am
    29    27    28   2
    30    29    30   1
    31    30    35  ar
    32    30    31  ar
    33    31    32  ar
    34    32    33  ar
    35    33    34  ar
    36    34    35  ar
    37     1    36   1
    38     1    37   1
    39     1    38   1
    40     2    39   1
    41     6    40   1
    42     6    41   1
    43     7    42   1
    44     8    43   1
    45     8    44   1
    46     9    45   1
    47     9    46   1
    48    11    47   1
    49    12    48   1
    50    13    49   1
    51    14    50   1
    52    15    51   1
    53    18    52   1
    54    19    53   1
    55    20    54   1
    56    20    55   1
    57    21    56   1
    58    21    57   1
    59    22    58   1
    60    22    59   1
    61    23    60   1
    62    25    61   1
    63    25    62   1
    64    26    63   1
    65    26    64   1
    66    29    65   1
    67    31    66   1
    68    32    67   1
    69    33    68   1
    70    34    69   1
    71    35    70   1
@<TRIPOS>SUBSTRUCTURE
     1  INH      1

