@<TRIPOS>MOLECULE
1sln_ligand_043
    70    71
SMALL
GAST_HUCK
****
This file was generated by PARSER (from files_GN.cpp)

@<TRIPOS>ATOM
      1 C1        -24.7702   89.6761   81.7729 C.3         1 INH      -0.0094
      2 C2        -23.5975   90.1970   82.6570 C.3         1 INH       0.0293
      3 C3        -23.8363   91.5520   83.2010 C.2         1 INH       0.0842
      4 O4        -25.0744   92.0853   83.3843 O.co2       1 INH      -0.5643
      5 O5        -22.7884   92.2512   83.6999 O.co2       1 INH      -0.5643
      6 N6        -22.2379   89.9906   82.0527 N.4         1 INH       0.2597
      7 C7        -21.4915   90.9322   81.1544 C.3         1 INH       0.0701
      8 C8        -22.2771   91.2136   79.8376 C.3         1 INH       0.0177
      9 C9        -21.4745   91.1325   78.5050 C.3         1 INH      -0.0119
     10 C10       -22.3479   91.3376   77.3189 C.ar        1 INH      -0.0427
     11 C11       -22.5590   92.6392   76.8068 C.ar        1 INH      -0.0603
     12 C12       -23.3967   92.8380   75.6920 C.ar        1 INH      -0.0686
     13 C13       -24.0469   91.7442   75.0943 C.ar        1 INH      -0.0687
     14 C14       -23.8612   90.4507   75.6065 C.ar        1 INH      -0.0686
     15 C15       -23.0177   90.2463   76.7162 C.ar        1 INH      -0.0603
     16 C16       -20.9143   92.1325   81.7873 C.2         1 INH       0.2270
     17 O17       -20.9744   92.2661   83.0167 O.2         1 INH      -0.3907
     18 N18       -20.1370   92.9482   81.0801 N.am        1 INH      -0.2605
     19 C19       -19.4424   94.1445   81.5039 C.3         1 INH       0.1369
     20 C20       -20.3522   95.4144   81.6273 C.3         1 INH      -0.0087
     21 C21       -21.6099   95.4960   80.7047 C.3         1 INH      -0.0156
     22 C22       -22.8633   95.9727   81.4888 C.3         1 INH       0.0627
     23 N23       -23.7704   96.7225   80.7298 N.pl3       1 INH      -0.2723
     24 C24       -24.8738   97.2184   81.1571 C.cat       1 INH       0.2882
     25 N25       -25.5847   97.8988   80.3418 N.pl3       1 INH      -0.2849
     26 N26       -25.3183   97.0798   82.3484 N.pl3       1 INH      -0.2849
     27 C27       -18.6737   93.9292   82.7363 C.2         1 INH       0.2292
     28 O28       -19.2887   93.7423   83.7810 O.2         1 INH      -0.3823
     29 N29       -17.3460   93.9281   82.7488 N.am        1 INH      -0.2320
     30 C30       -16.5454   93.8194   83.8569 C.ar        1 INH       0.0663
     31 C31       -16.7319   94.6224   85.0092 C.ar        1 INH      -0.0413
     32 C32       -15.8837   94.4905   86.1271 C.ar        1 INH      -0.0755
     33 C33       -14.8456   93.5367   86.1143 C.ar        1 INH      -0.0772
     34 C34       -14.6431   92.7405   84.9738 C.ar        1 INH      -0.0755
     35 C35       -15.4779   92.8928   83.8484 C.ar        1 INH      -0.0413
     36 H1        -25.6401   89.4532   82.4018 H           1 INH       0.0303
     37 H2        -24.4909   88.7563   81.2524 H           1 INH       0.0303
     38 H3        -25.0925   90.4110   81.0301 H           1 INH       0.0303
     39 H4        -23.6094   89.5310   83.5280 H           1 INH       0.1023
     40 H5        -22.3342   89.1377   81.4914 H           1 INH       0.2052
     41 H6        -21.6074   89.7236   82.8120 H           1 INH       0.2052
     42 H7        -20.6260   90.3327   80.8710 H           1 INH       0.1101
     43 H8        -22.7639   92.1909   79.9104 H           1 INH       0.0368
     44 H9        -23.0621   90.4561   79.7618 H           1 INH       0.0368
     45 H10       -20.9833   90.1591   78.4489 H           1 INH       0.0429
     46 H11       -20.6805   91.8806   78.4975 H           1 INH       0.0429
     47 H12       -22.0944   93.4442   77.2348 H           1 INH       0.0557
     48 H13       -23.5313   93.7781   75.3208 H           1 INH       0.0599
     49 H14       -24.6437   91.8888   74.2793 H           1 INH       0.0559
     50 H15       -24.3359   89.6560   75.1772 H           1 INH       0.0599
     51 H16       -22.8998   89.2990   77.0812 H           1 INH       0.0557
     52 H17       -20.0513   92.7247   80.1409 H           1 INH       0.1885
     53 H18       -18.7385   94.3558   80.6916 H           1 INH       0.0805
     54 H19       -19.7405   96.2937   81.4163 H           1 INH       0.0314
     55 H20       -20.6686   95.4979   82.6655 H           1 INH       0.0314
     56 H21       -21.8426   94.5337   80.2541 H           1 INH       0.0301
     57 H22       -21.4104   96.1893   79.8856 H           1 INH       0.0301
     58 H23       -22.5378   96.5807   82.3376 H           1 INH       0.0689
     59 H24       -23.3791   95.0872   81.8719 H           1 INH       0.0689
     60 H25       -23.5455   96.8845   79.8371 H           1 INH       0.2642
     61 H26       -26.3964   98.2699   80.6264 H           1 INH       0.2615
     62 H27       -25.3024   98.0228   79.4588 H           1 INH       0.2615
     63 H28       -24.8377   96.5817   82.9861 H           1 INH       0.2615
     64 H29       -26.1345   97.4731   82.5907 H           1 INH       0.2615
     65 H30       -16.8966   93.9389   81.8898 H           1 INH       0.2257
     66 H31       -17.4759   95.3219   85.0390 H           1 INH       0.0502
     67 H32       -16.0270   95.0784   86.9502 H           1 INH       0.0577
     68 H33       -14.2330   93.4394   86.9245 H           1 INH       0.0487
     69 H34       -13.8861   92.0506   84.9613 H           1 INH       0.0577
     70 H35       -15.3184   92.3047   83.0258 H           1 INH       0.0502
@<TRIPOS>BOND
     1     1     2   1
     2     2     6   1
     3     2     3   1
     4     3     5  ar
     5     3     4  ar
     6     6     7   1
     7     7    16   1
     8     7     8   1
     9     8     9   1
    10     9    10   1
    11    10    15  ar
    12    10    11  ar
    13    11    12  ar
    14    12    13  ar
    15    13    14  ar
    16    14    15  ar
    17    16    18  am
    18    16    17   2
    19    18    19   1
    20    19    27   1
    21    19    20   1
    22    20    21   1
    23    21    22   1
    24    22    23   1
    25    23    24  ar
    26    24    26  ar
    27    24    25  ar
    28    27    29  am
    29    27    28   2
    30    29    30   1
    31    30    35  ar
    32    30    31  ar
    33    31    32  ar
    34    32    33  ar
    35    33    34  ar
    36    34    35  ar
    37     1    36   1
    38     1    37   1
    39     1    38   1
    40     2    39   1
    41     6    40   1
    42     6    41   1
    43     7    42   1
    44     8    43   1
    45     8    44   1
    46     9    45   1
    47     9    46   1
    48    11    47   1
    49    12    48   1
    50    13    49   1
    51    14    50   1
    52    15    51   1
    53    18    52   1
    54    19    53   1
    55    20    54   1
    56    20    55   1
    57    21    56   1
    58    21    57   1
    59    22    58   1
    60    22    59   1
    61    23    60   1
    62    25    61   1
    63    25    62   1
    64    26    63   1
    65    26    64   1
    66    29    65   1
    67    31    66   1
    68    32    67   1
    69    33    68   1
    70    34    69   1
    71    35    70   1
@<TRIPOS>SUBSTRUCTURE
     1  INH      1

