@<TRIPOS>MOLECULE
1sln_ligand_029
    70    71
SMALL
GAST_HUCK
****
This file was generated by PARSER (from files_GN.cpp)

@<TRIPOS>ATOM
      1 C1        -22.8905   90.5459   80.3477 C.3         1 INH      -0.0094
      2 C2        -21.6808   90.7857   81.2906 C.3         1 INH       0.0293
      3 C3        -22.1019   91.2147   82.6423 C.2         1 INH       0.0842
      4 O4        -23.1176   90.5759   83.2659 O.co2       1 INH      -0.5643
      5 O5        -21.3623   92.0828   83.3723 O.co2       1 INH      -0.5643
      6 N6        -20.6009   91.6580   80.7408 N.4         1 INH       0.2597
      7 C7        -20.8605   92.8263   79.8479 C.3         1 INH       0.0701
      8 C8        -21.8439   93.9138   80.4166 C.3         1 INH       0.0177
      9 C9        -22.7375   94.6144   79.3547 C.3         1 INH      -0.0119
     10 C10       -21.9841   95.4054   78.3452 C.ar        1 INH      -0.0427
     11 C11       -21.6676   94.8597   77.0789 C.ar        1 INH      -0.0603
     12 C12       -20.9871   95.6271   76.1144 C.ar        1 INH      -0.0686
     13 C13       -20.6254   96.9568   76.4006 C.ar        1 INH      -0.0687
     14 C14       -20.9410   97.5148   77.6506 C.ar        1 INH      -0.0686
     15 C15       -21.6079   96.7428   78.6205 C.ar        1 INH      -0.0603
     16 C16       -19.5306   93.3459   79.5129 C.2         1 INH       0.2270
     17 O17       -19.0188   93.0281   78.4469 O.2         1 INH      -0.3907
     18 N18       -18.8231   93.9929   80.4372 N.am        1 INH      -0.2605
     19 C19       -17.4269   94.3486   80.4684 C.3         1 INH       0.1369
     20 C20       -16.4854   93.1828   80.9391 C.3         1 INH      -0.0087
     21 C21       -17.1250   92.0434   81.7876 C.3         1 INH      -0.0156
     22 C22       -17.6423   92.4390   83.2027 C.3         1 INH       0.0627
     23 N23       -16.6437   92.4664   84.1846 N.pl3       1 INH      -0.2723
     24 C24       -16.1585   91.4730   84.8311 C.cat       1 INH       0.2882
     25 N25       -16.5145   90.2532   84.6697 N.pl3       1 INH      -0.2849
     26 N26       -15.2613   91.7138   85.7073 N.pl3       1 INH      -0.2849
     27 C27       -16.9689   95.0157   79.2491 C.2         1 INH       0.2292
     28 O28       -16.9847   94.3715   78.2072 O.2         1 INH      -0.3823
     29 N29       -16.7222   96.3278   79.2406 N.am        1 INH      -0.2320
     30 C30       -16.3567   97.0864   78.1630 C.ar        1 INH       0.0663
     31 C31       -17.1503   98.2120   77.8399 C.ar        1 INH      -0.0413
     32 C32       -16.8619   98.9893   76.7041 C.ar        1 INH      -0.0755
     33 C33       -15.7715   98.6537   75.8782 C.ar        1 INH      -0.0772
     34 C34       -14.9445   97.5676   76.2142 C.ar        1 INH      -0.0755
     35 C35       -15.2384   96.7890   77.3459 C.ar        1 INH      -0.0413
     36 H1        -23.5155   89.7360   80.7331 H           1 INH       0.0303
     37 H2        -22.5422   90.2611   79.3533 H           1 INH       0.0303
     38 H3        -23.5038   91.4443   80.2624 H           1 INH       0.0303
     39 H4        -21.2038   89.8111   81.4353 H           1 INH       0.1023
     40 H5        -19.9980   91.0305   80.2010 H           1 INH       0.2052
     41 H6        -20.0431   91.9937   81.5310 H           1 INH       0.2052
     42 H7        -21.3023   92.4132   78.9351 H           1 INH       0.1101
     43 H8        -21.3115   94.6728   80.9966 H           1 INH       0.0368
     44 H9        -22.5344   93.4415   81.1143 H           1 INH       0.0368
     45 H10       -23.4358   95.2830   79.8683 H           1 INH       0.0429
     46 H11       -23.3548   93.8566   78.8653 H           1 INH       0.0429
     47 H12       -21.9311   93.8986   76.8481 H           1 INH       0.0557
     48 H13       -20.7609   95.2219   75.2039 H           1 INH       0.0599
     49 H14       -20.1395   97.5171   75.6964 H           1 INH       0.0559
     50 H15       -20.6917   98.4865   77.8530 H           1 INH       0.0599
     51 H16       -21.8376   97.1689   79.5207 H           1 INH       0.0557
     52 H17       -19.2972   94.1818   81.2638 H           1 INH       0.1885
     53 H18       -17.3657   95.0874   81.2725 H           1 INH       0.0805
     54 H19       -15.6536   93.6106   81.5083 H           1 INH       0.0314
     55 H20       -16.0402   92.7001   80.0670 H           1 INH       0.0314
     56 H21       -16.3885   91.2393   81.8834 H           1 INH       0.0301
     57 H22       -17.9582   91.6234   81.2183 H           1 INH       0.0301
     58 H23       -18.4343   91.7472   83.5093 H           1 INH       0.0689
     59 H24       -18.1009   93.4265   83.1700 H           1 INH       0.0689
     60 H25       -16.3183   93.3135   84.4181 H           1 INH       0.2642
     61 H26       -16.1300   89.5775   85.1903 H           1 INH       0.2615
     62 H27       -17.1666   90.0282   84.0389 H           1 INH       0.2615
     63 H28       -14.9770   92.5925   85.8573 H           1 INH       0.2615
     64 H29       -14.8855   91.0134   86.2034 H           1 INH       0.2615
     65 H30       -16.9174   96.8133   80.0579 H           1 INH       0.2257
     66 H31       -17.9514   98.4614   78.4245 H           1 INH       0.0502
     67 H32       -17.4515   99.7907   76.4677 H           1 INH       0.0577
     68 H33       -15.5721   99.2064   75.0418 H           1 INH       0.0487
     69 H34       -14.1348   97.3394   75.6305 H           1 INH       0.0577
     70 H35       -14.6169   96.0137   77.5853 H           1 INH       0.0502
@<TRIPOS>BOND
     1     1     2   1
     2     2     6   1
     3     2     3   1
     4     3     5  ar
     5     3     4  ar
     6     6     7   1
     7     7    16   1
     8     7     8   1
     9     8     9   1
    10     9    10   1
    11    10    15  ar
    12    10    11  ar
    13    11    12  ar
    14    12    13  ar
    15    13    14  ar
    16    14    15  ar
    17    16    18  am
    18    16    17   2
    19    18    19   1
    20    19    27   1
    21    19    20   1
    22    20    21   1
    23    21    22   1
    24    22    23   1
    25    23    24  ar
    26    24    26  ar
    27    24    25  ar
    28    27    29  am
    29    27    28   2
    30    29    30   1
    31    30    35  ar
    32    30    31  ar
    33    31    32  ar
    34    32    33  ar
    35    33    34  ar
    36    34    35  ar
    37     1    36   1
    38     1    37   1
    39     1    38   1
    40     2    39   1
    41     6    40   1
    42     6    41   1
    43     7    42   1
    44     8    43   1
    45     8    44   1
    46     9    45   1
    47     9    46   1
    48    11    47   1
    49    12    48   1
    50    13    49   1
    51    14    50   1
    52    15    51   1
    53    18    52   1
    54    19    53   1
    55    20    54   1
    56    20    55   1
    57    21    56   1
    58    21    57   1
    59    22    58   1
    60    22    59   1
    61    23    60   1
    62    25    61   1
    63    25    62   1
    64    26    63   1
    65    26    64   1
    66    29    65   1
    67    31    66   1
    68    32    67   1
    69    33    68   1
    70    34    69   1
    71    35    70   1
@<TRIPOS>SUBSTRUCTURE
     1  INH      1

