@<TRIPOS>MOLECULE
1sln_ligand_033
    70    71
SMALL
GAST_HUCK
****
This file was generated by PARSER (from files_GN.cpp)

@<TRIPOS>ATOM
      1 C1        -22.4780   90.0444   82.3403 C.3         1 INH      -0.0094
      2 C2        -21.6033   91.0390   81.5476 C.3         1 INH       0.0293
      3 C3        -21.9964   92.4133   81.9140 C.2         1 INH       0.0842
      4 O4        -21.6313   92.9022   83.1183 O.co2       1 INH      -0.5643
      5 O5        -22.5674   93.2477   81.0152 O.co2       1 INH      -0.5643
      6 N6        -21.6785   90.7185   80.0934 N.4         1 INH       0.2597
      7 C7        -21.1870   91.6345   79.0145 C.3         1 INH       0.0701
      8 C8        -22.3695   92.0301   78.0684 C.3         1 INH       0.0177
      9 C9        -22.8051   90.9066   77.0786 C.3         1 INH      -0.0119
     10 C10       -24.0652   91.2473   76.3661 C.ar        1 INH      -0.0427
     11 C11       -24.0485   91.7791   75.0574 C.ar        1 INH      -0.0603
     12 C12       -25.2499   92.1031   74.4012 C.ar        1 INH      -0.0686
     13 C13       -26.4847   91.8962   75.0459 C.ar        1 INH      -0.0687
     14 C14       -26.5138   91.3668   76.3473 C.ar        1 INH      -0.0686
     15 C15       -25.3148   91.0484   77.0054 C.ar        1 INH      -0.0603
     16 C16       -20.3752   92.7443   79.4866 C.2         1 INH       0.2270
     17 O17       -20.6526   93.9137   79.2070 O.2         1 INH      -0.3907
     18 N18       -19.3469   92.4672   80.2736 N.am        1 INH      -0.2605
     19 C19       -18.5398   93.4086   81.0135 C.3         1 INH       0.1369
     20 C20       -17.6024   92.6272   81.9770 C.3         1 INH      -0.0087
     21 C21       -16.2394   92.1333   81.4031 C.3         1 INH      -0.0156
     22 C22       -15.7691   90.7527   81.9437 C.3         1 INH       0.0627
     23 N23       -16.0720   90.4942   83.2798 N.pl3       1 INH      -0.2723
     24 C24       -15.4750   90.9205   84.3358 C.cat       1 INH       0.2882
     25 N25       -15.9329   90.5226   85.4622 N.pl3       1 INH      -0.2849
     26 N26       -14.4557   91.6974   84.3452 N.pl3       1 INH      -0.2849
     27 C27       -17.8431   94.3643   80.1595 C.2         1 INH       0.2292
     28 O28       -17.4263   93.9902   79.0698 O.2         1 INH      -0.3823
     29 N29       -17.6760   95.6132   80.5738 N.am        1 INH      -0.2320
     30 C30       -17.1883   96.6214   79.8112 C.ar        1 INH       0.0663
     31 C31       -18.0445   97.2539   78.8873 C.ar        1 INH      -0.0413
     32 C32       -17.5638   98.2913   78.0699 C.ar        1 INH      -0.0755
     33 C33       -16.2282   98.7145   78.1831 C.ar        1 INH      -0.0772
     34 C34       -15.3752   98.1086   79.1248 C.ar        1 INH      -0.0755
     35 C35       -15.8533   97.0640   79.9431 C.ar        1 INH      -0.0413
     36 H1        -22.3989   90.2278   83.4117 H           1 INH       0.0303
     37 H2        -22.1325   89.0315   82.1446 H           1 INH       0.0303
     38 H3        -23.5260   90.1202   82.0484 H           1 INH       0.0303
     39 H4        -20.5661   90.8881   81.8518 H           1 INH       0.1023
     40 H5        -22.6569   90.4833   79.8801 H           1 INH       0.2052
     41 H6        -21.1266   89.8573   79.9842 H           1 INH       0.2052
     42 H7        -20.5088   91.0352   78.3886 H           1 INH       0.1101
     43 H8        -22.0934   92.9091   77.4726 H           1 INH       0.0368
     44 H9        -23.2276   92.3149   78.6870 H           1 INH       0.0368
     45 H10       -22.9516   89.9627   77.6087 H           1 INH       0.0429
     46 H11       -21.9937   90.7395   76.3646 H           1 INH       0.0429
     47 H12       -23.1617   91.9431   74.5749 H           1 INH       0.0557
     48 H13       -25.2301   92.4902   73.4529 H           1 INH       0.0599
     49 H14       -27.3591   92.1314   74.5679 H           1 INH       0.0559
     50 H15       -27.4124   91.2124   76.8161 H           1 INH       0.0599
     51 H16       -25.3551   90.6683   77.9530 H           1 INH       0.0557
     52 H17       -19.2005   91.5200   80.4748 H           1 INH       0.1885
     53 H18       -19.2388   93.9450   81.6667 H           1 INH       0.0805
     54 H19       -18.1663   91.7682   82.3476 H           1 INH       0.0314
     55 H20       -17.3915   93.2640   82.8402 H           1 INH       0.0314
     56 H21       -15.4734   92.8824   81.6207 H           1 INH       0.0301
     57 H22       -16.3055   92.0436   80.3172 H           1 INH       0.0301
     58 H23       -14.6939   90.6275   81.7710 H           1 INH       0.0689
     59 H24       -16.2775   89.9771   81.3614 H           1 INH       0.0689
     60 H25       -16.8131   89.9453   83.4182 H           1 INH       0.2642
     61 H26       -15.5202   90.7918   86.2548 H           1 INH       0.2615
     62 H27       -16.6673   89.9469   85.4853 H           1 INH       0.2615
     63 H28       -14.0962   92.0095   83.5441 H           1 INH       0.2615
     64 H29       -14.0774   91.9552   85.1586 H           1 INH       0.2615
     65 H30       -18.0110   95.8447   81.4626 H           1 INH       0.2257
     66 H31       -19.0197   96.9521   78.8019 H           1 INH       0.0502
     67 H32       -18.1917   98.7398   77.4014 H           1 INH       0.0577
     68 H33       -15.8813   99.4680   77.5866 H           1 INH       0.0487
     69 H34       -14.4097   98.4335   79.2187 H           1 INH       0.0577
     70 H35       -15.2264   96.6315   80.6240 H           1 INH       0.0502
@<TRIPOS>BOND
     1     1     2   1
     2     2     6   1
     3     2     3   1
     4     3     5  ar
     5     3     4  ar
     6     6     7   1
     7     7    16   1
     8     7     8   1
     9     8     9   1
    10     9    10   1
    11    10    15  ar
    12    10    11  ar
    13    11    12  ar
    14    12    13  ar
    15    13    14  ar
    16    14    15  ar
    17    16    18  am
    18    16    17   2
    19    18    19   1
    20    19    27   1
    21    19    20   1
    22    20    21   1
    23    21    22   1
    24    22    23   1
    25    23    24  ar
    26    24    26  ar
    27    24    25  ar
    28    27    29  am
    29    27    28   2
    30    29    30   1
    31    30    35  ar
    32    30    31  ar
    33    31    32  ar
    34    32    33  ar
    35    33    34  ar
    36    34    35  ar
    37     1    36   1
    38     1    37   1
    39     1    38   1
    40     2    39   1
    41     6    40   1
    42     6    41   1
    43     7    42   1
    44     8    43   1
    45     8    44   1
    46     9    45   1
    47     9    46   1
    48    11    47   1
    49    12    48   1
    50    13    49   1
    51    14    50   1
    52    15    51   1
    53    18    52   1
    54    19    53   1
    55    20    54   1
    56    20    55   1
    57    21    56   1
    58    21    57   1
    59    22    58   1
    60    22    59   1
    61    23    60   1
    62    25    61   1
    63    25    62   1
    64    26    63   1
    65    26    64   1
    66    29    65   1
    67    31    66   1
    68    32    67   1
    69    33    68   1
    70    34    69   1
    71    35    70   1
@<TRIPOS>SUBSTRUCTURE
     1  INH      1

