@<TRIPOS>MOLECULE
1sln_ligand_003
    70    71
SMALL
GAST_HUCK
****
This file was generated by PARSER (from files_GN.cpp)

@<TRIPOS>ATOM
      1 C1        -24.1285   92.0838   82.8979 C.3         1 INH      -0.0094
      2 C2        -24.0082   90.5611   82.5876 C.3         1 INH       0.0293
      3 C3        -24.4292   89.7421   83.7574 C.2         1 INH       0.0842
      4 O4        -23.9610   88.4812   83.9180 O.co2       1 INH      -0.5643
      5 O5        -25.3376   90.1769   84.6677 O.co2       1 INH      -0.5643
      6 N6        -22.6804   90.0397   82.0990 N.4         1 INH       0.2597
      7 C7        -21.7450   90.8473   81.2509 C.3         1 INH       0.0701
      8 C8        -22.4092   91.1912   79.8627 C.3         1 INH       0.0177
      9 C9        -21.5834   90.9629   78.5579 C.3         1 INH      -0.0119
     10 C10       -22.4378   90.6098   77.3770 C.ar        1 INH      -0.0427
     11 C11       -23.6817   91.2555   77.1616 C.ar        1 INH      -0.0603
     12 C12       -24.5249   90.8591   76.1041 C.ar        1 INH      -0.0686
     13 C13       -24.1311   89.8305   75.2306 C.ar        1 INH      -0.0687
     14 C14       -22.8887   89.2002   75.4132 C.ar        1 INH      -0.0686
     15 C15       -22.0462   89.5959   76.4691 C.ar        1 INH      -0.0603
     16 C16       -21.1396   91.9439   82.0064 C.2         1 INH       0.2270
     17 O17       -21.3240   92.0142   83.2255 O.2         1 INH      -0.3907
     18 N18       -20.3174   92.8245   81.4327 N.am        1 INH      -0.2605
     19 C19       -19.7846   93.9983   82.0853 C.3         1 INH       0.1369
     20 C20       -18.7757   93.7228   83.2766 C.3         1 INH      -0.0087
     21 C21       -17.2463   94.0192   83.1113 C.3         1 INH      -0.0156
     22 C22       -16.4125   92.8530   82.4977 C.3         1 INH       0.0627
     23 N23       -16.6318   91.6247   83.1369 N.pl3       1 INH      -0.2723
     24 C24       -16.0483   91.1622   84.1833 C.cat       1 INH       0.2882
     25 N25       -16.4712   90.0313   84.5999 N.pl3       1 INH      -0.2849
     26 N26       -15.0905   91.7308   84.8180 N.pl3       1 INH      -0.2849
     27 C27       -19.2566   94.9875   81.1442 C.2         1 INH       0.2292
     28 O28       -19.7559   96.1113   81.1285 O.2         1 INH      -0.3823
     29 N29       -18.3435   94.6498   80.2425 N.am        1 INH      -0.2320
     30 C30       -17.7485   95.4818   79.3511 C.ar        1 INH       0.0663
     31 C31       -17.8720   95.2192   77.9656 C.ar        1 INH      -0.0413
     32 C32       -17.2766   96.0756   77.0206 C.ar        1 INH      -0.0755
     33 C33       -16.5424   97.2014   77.4465 C.ar        1 INH      -0.0772
     34 C34       -16.3834   97.4533   78.8250 C.ar        1 INH      -0.0755
     35 C35       -17.0088   96.6150   79.7669 C.ar        1 INH      -0.0413
     36 H1        -25.1777   92.3409   83.1084 H           1 INH       0.0303
     37 H2        -23.8095   92.6799   82.0420 H           1 INH       0.0303
     38 H3        -23.5116   92.3513   83.7703 H           1 INH       0.0303
     39 H4        -24.7318   90.3322   81.8102 H           1 INH       0.1023
     40 H5        -22.9081   89.2321   81.5046 H           1 INH       0.2052
     41 H6        -22.1451   89.6652   82.8994 H           1 INH       0.2052
     42 H7        -20.9198   90.1522   81.0543 H           1 INH       0.1101
     43 H8        -22.7538   92.2268   79.8788 H           1 INH       0.0368
     44 H9        -23.3037   90.5644   79.7704 H           1 INH       0.0368
     45 H10       -20.8675   90.1596   78.7520 H           1 INH       0.0429
     46 H11       -21.0074   91.8660   78.3376 H           1 INH       0.0429
     47 H12       -23.9933   92.0009   77.7856 H           1 INH       0.0557
     48 H13       -25.4308   91.3120   75.9792 H           1 INH       0.0599
     49 H14       -24.7488   89.5387   74.4717 H           1 INH       0.0559
     50 H15       -22.5941   88.4617   74.7713 H           1 INH       0.0599
     51 H16       -21.1499   89.1167   76.5855 H           1 INH       0.0557
     52 H17       -20.1637   92.7531   80.4769 H           1 INH       0.1885
     53 H18       -20.6539   94.4782   82.5543 H           1 INH       0.0805
     54 H19       -18.8748   92.6860   83.6077 H           1 INH       0.0314
     55 H20       -19.0972   94.3193   84.1394 H           1 INH       0.0314
     56 H21       -16.8246   94.2518   84.1155 H           1 INH       0.0301
     57 H22       -17.1390   94.9043   82.4616 H           1 INH       0.0301
     58 H23       -15.3446   93.1219   82.5262 H           1 INH       0.0689
     59 H24       -16.6966   92.7244   81.4442 H           1 INH       0.0689
     60 H25       -17.2970   91.0756   82.7708 H           1 INH       0.2642
     61 H26       -16.1057   89.6229   85.3574 H           1 INH       0.2615
     62 H27       -17.1653   89.6135   84.1312 H           1 INH       0.2615
     63 H28       -14.7576   92.5581   84.5321 H           1 INH       0.2615
     64 H29       -14.7189   91.3228   85.5729 H           1 INH       0.2615
     65 H30       -18.1110   93.7136   80.1705 H           1 INH       0.2257
     66 H31       -18.3917   94.4049   77.6278 H           1 INH       0.0502
     67 H32       -17.3928   95.9073   76.0129 H           1 INH       0.0577
     68 H33       -16.0891   97.8151   76.7638 H           1 INH       0.0487
     69 H34       -15.8405   98.2624   79.1409 H           1 INH       0.0577
     70 H35       -16.8804   96.7986   80.7611 H           1 INH       0.0502
@<TRIPOS>BOND
     1     1     2   1
     2     2     6   1
     3     2     3   1
     4     3     5  ar
     5     3     4  ar
     6     6     7   1
     7     7    16   1
     8     7     8   1
     9     8     9   1
    10     9    10   1
    11    10    15  ar
    12    10    11  ar
    13    11    12  ar
    14    12    13  ar
    15    13    14  ar
    16    14    15  ar
    17    16    18  am
    18    16    17   2
    19    18    19   1
    20    19    27   1
    21    19    20   1
    22    20    21   1
    23    21    22   1
    24    22    23   1
    25    23    24  ar
    26    24    26  ar
    27    24    25  ar
    28    27    29  am
    29    27    28   2
    30    29    30   1
    31    30    35  ar
    32    30    31  ar
    33    31    32  ar
    34    32    33  ar
    35    33    34  ar
    36    34    35  ar
    37     1    36   1
    38     1    37   1
    39     1    38   1
    40     2    39   1
    41     6    40   1
    42     6    41   1
    43     7    42   1
    44     8    43   1
    45     8    44   1
    46     9    45   1
    47     9    46   1
    48    11    47   1
    49    12    48   1
    50    13    49   1
    51    14    50   1
    52    15    51   1
    53    18    52   1
    54    19    53   1
    55    20    54   1
    56    20    55   1
    57    21    56   1
    58    21    57   1
    59    22    58   1
    60    22    59   1
    61    23    60   1
    62    25    61   1
    63    25    62   1
    64    26    63   1
    65    26    64   1
    66    29    65   1
    67    31    66   1
    68    32    67   1
    69    33    68   1
    70    34    69   1
    71    35    70   1
@<TRIPOS>SUBSTRUCTURE
     1  INH      1

