@<TRIPOS>MOLECULE
1sln_ligand_047
    70    71
SMALL
GAST_HUCK
****
This file was generated by PARSER (from files_GN.cpp)

@<TRIPOS>ATOM
      1 C1        -22.5432   90.5821   80.1784 C.3         1 INH      -0.0094
      2 C2        -21.9020   90.5987   81.5887 C.3         1 INH       0.0293
      3 C3        -22.8020   91.2255   82.5875 C.2         1 INH       0.0842
      4 O4        -24.0807   90.8095   82.7115 O.co2       1 INH      -0.5643
      5 O5        -22.3425   92.0800   83.5256 O.co2       1 INH      -0.5643
      6 N6        -20.4901   91.0748   81.5274 N.4         1 INH       0.2597
      7 C7        -20.0478   92.4960   81.6538 C.3         1 INH       0.0701
      8 C8        -18.5441   92.5884   81.2263 C.3         1 INH       0.0177
      9 C9        -17.7274   93.7444   81.8985 C.3         1 INH      -0.0119
     10 C10       -16.7303   93.2562   82.8945 C.ar        1 INH      -0.0427
     11 C11       -16.9376   93.3908   84.2916 C.ar        1 INH      -0.0603
     12 C12       -15.9879   92.8952   85.2061 C.ar        1 INH      -0.0686
     13 C13       -14.8215   92.2646   84.7442 C.ar        1 INH      -0.0687
     14 C14       -14.6023   92.1217   83.3615 C.ar        1 INH      -0.0686
     15 C15       -15.5511   92.6114   82.4473 C.ar        1 INH      -0.0603
     16 C16       -20.8910   93.4969   80.9797 C.2         1 INH       0.2270
     17 O17       -21.5069   94.2845   81.6824 O.2         1 INH      -0.3907
     18 N18       -20.9820   93.5518   79.6481 N.am        1 INH      -0.2605
     19 C19       -21.7598   94.4297   78.7977 C.3         1 INH       0.1369
     20 C20       -23.3033   94.1981   78.9231 C.3         1 INH      -0.0087
     21 C21       -24.2761   95.2118   78.2308 C.3         1 INH      -0.0156
     22 C22       -25.0876   96.0969   79.2162 C.3         1 INH       0.0627
     23 N23       -26.0758   95.3466   79.8703 N.pl3       1 INH      -0.2723
     24 C24       -26.1381   94.9881   81.1027 C.cat       1 INH       0.2882
     25 N25       -27.1528   94.3165   81.4646 N.pl3       1 INH      -0.2849
     26 N26       -25.2580   95.2452   81.9850 N.pl3       1 INH      -0.2849
     27 C27       -21.3471   95.8332   78.8802 C.2         1 INH       0.2292
     28 O28       -20.8015   96.3366   77.9094 O.2         1 INH      -0.3823
     29 N29       -21.6408   96.5731   79.9474 N.am        1 INH      -0.2320
     30 C30       -21.4482   97.9188   80.0570 C.ar        1 INH       0.0663
     31 C31       -22.0536   98.8182   79.1576 C.ar        1 INH      -0.0413
     32 C32       -21.8611  100.2083   79.2937 C.ar        1 INH      -0.0755
     33 C33       -21.0449  100.6991   80.3320 C.ar        1 INH      -0.0772
     34 C34       -20.4476   99.8108   81.2376 C.ar        1 INH      -0.0755
     35 C35       -20.6591   98.4218   81.1173 C.ar        1 INH      -0.0413
     36 H1        -23.4388   89.9530   80.1661 H           1 INH       0.0303
     37 H2        -21.8359   90.1996   79.4381 H           1 INH       0.0303
     38 H3        -22.8371   91.5872   79.8941 H           1 INH       0.0303
     39 H4        -21.8266   89.5495   81.8840 H           1 INH       0.1023
     40 H5        -20.0910   90.7058   80.6644 H           1 INH       0.2052
     41 H6        -20.0115   90.5810   82.2860 H           1 INH       0.2052
     42 H7        -20.0561   92.6932   82.7301 H           1 INH       0.1101
     43 H8        -18.4790   92.7004   80.1403 H           1 INH       0.0368
     44 H9        -18.0556   91.6348   81.4452 H           1 INH       0.0368
     45 H10       -18.4099   94.4640   82.3581 H           1 INH       0.0429
     46 H11       -17.1858   94.2998   81.1262 H           1 INH       0.0429
     47 H12       -17.7853   93.8373   84.6474 H           1 INH       0.0557
     48 H13       -16.1482   92.9927   86.2116 H           1 INH       0.0599
     49 H14       -14.1304   91.9038   85.4078 H           1 INH       0.0559
     50 H15       -13.7571   91.6594   83.0231 H           1 INH       0.0599
     51 H16       -15.3809   92.4904   81.4445 H           1 INH       0.0557
     52 H17       -20.4578   92.8864   79.1742 H           1 INH       0.1885
     53 H18       -21.5087   94.0860   77.7863 H           1 INH       0.0805
     54 H19       -23.5553   94.1143   79.9788 H           1 INH       0.0314
     55 H20       -23.5162   93.2201   78.4816 H           1 INH       0.0314
     56 H21       -24.9876   94.6648   77.6029 H           1 INH       0.0301
     57 H22       -23.7188   95.8650   77.5589 H           1 INH       0.0301
     58 H23       -25.6047   96.8776   78.6547 H           1 INH       0.0689
     59 H24       -24.4059   96.6035   79.9030 H           1 INH       0.0689
     60 H25       -26.7828   95.0603   79.3272 H           1 INH       0.2642
     61 H26       -27.2396   94.0345   82.3549 H           1 INH       0.2615
     62 H27       -27.8312   94.1057   80.8516 H           1 INH       0.2615
     63 H28       -24.4789   95.7165   81.7684 H           1 INH       0.2615
     64 H29       -25.3745   94.9400   82.8637 H           1 INH       0.2615
     65 H30       -22.0064   96.1264   80.7206 H           1 INH       0.2257
     66 H31       -22.6553   98.4703   78.4036 H           1 INH       0.0502
     67 H32       -22.3123  100.8511   78.6425 H           1 INH       0.0577
     68 H33       -20.8944  101.7069   80.4198 H           1 INH       0.0487
     69 H34       -19.8547  100.1724   81.9892 H           1 INH       0.0577
     70 H35       -20.2190   97.7849   81.7840 H           1 INH       0.0502
@<TRIPOS>BOND
     1     1     2   1
     2     2     6   1
     3     2     3   1
     4     3     5  ar
     5     3     4  ar
     6     6     7   1
     7     7    16   1
     8     7     8   1
     9     8     9   1
    10     9    10   1
    11    10    15  ar
    12    10    11  ar
    13    11    12  ar
    14    12    13  ar
    15    13    14  ar
    16    14    15  ar
    17    16    18  am
    18    16    17   2
    19    18    19   1
    20    19    27   1
    21    19    20   1
    22    20    21   1
    23    21    22   1
    24    22    23   1
    25    23    24  ar
    26    24    26  ar
    27    24    25  ar
    28    27    29  am
    29    27    28   2
    30    29    30   1
    31    30    35  ar
    32    30    31  ar
    33    31    32  ar
    34    32    33  ar
    35    33    34  ar
    36    34    35  ar
    37     1    36   1
    38     1    37   1
    39     1    38   1
    40     2    39   1
    41     6    40   1
    42     6    41   1
    43     7    42   1
    44     8    43   1
    45     8    44   1
    46     9    45   1
    47     9    46   1
    48    11    47   1
    49    12    48   1
    50    13    49   1
    51    14    50   1
    52    15    51   1
    53    18    52   1
    54    19    53   1
    55    20    54   1
    56    20    55   1
    57    21    56   1
    58    21    57   1
    59    22    58   1
    60    22    59   1
    61    23    60   1
    62    25    61   1
    63    25    62   1
    64    26    63   1
    65    26    64   1
    66    29    65   1
    67    31    66   1
    68    32    67   1
    69    33    68   1
    70    34    69   1
    71    35    70   1
@<TRIPOS>SUBSTRUCTURE
     1  INH      1

