@<TRIPOS>MOLECULE
1sln_ligand_009
    70    71
SMALL
GAST_HUCK
****
This file was generated by PARSER (from files_GN.cpp)

@<TRIPOS>ATOM
      1 C1        -23.7663   89.8827   81.5252 C.3         1 INH      -0.0094
      2 C2        -22.3586   90.4718   81.8283 C.3         1 INH       0.0293
      3 C3        -22.3504   91.4216   82.9631 C.2         1 INH       0.0842
      4 O4        -21.1729   91.8174   83.4997 O.co2       1 INH      -0.5643
      5 O5        -23.4833   91.9076   83.5171 O.co2       1 INH      -0.5643
      6 N6        -21.6899   90.9654   80.5844 N.4         1 INH       0.2597
      7 C7        -21.5952   92.4026   80.1923 C.3         1 INH       0.0701
      8 C8        -22.9826   93.0897   79.9801 C.3         1 INH       0.0177
      9 C9        -22.9421   94.5431   79.4128 C.3         1 INH      -0.0119
     10 C10       -22.9010   95.6088   80.4515 C.ar        1 INH      -0.0427
     11 C11       -21.6832   96.2182   80.8460 C.ar        1 INH      -0.0603
     12 C12       -21.6652   97.2335   81.8206 C.ar        1 INH      -0.0686
     13 C13       -22.8699   97.6802   82.3956 C.ar        1 INH      -0.0687
     14 C14       -24.0908   97.0961   82.0034 C.ar        1 INH      -0.0686
     15 C15       -24.1020   96.0552   81.0593 C.ar        1 INH      -0.0603
     16 C16       -20.6493   93.1511   81.0221 C.2         1 INH       0.2270
     17 O17       -21.0502   93.7652   82.0018 O.2         1 INH      -0.3907
     18 N18       -19.3694   93.2138   80.6656 N.am        1 INH      -0.2605
     19 C19       -18.3189   93.9735   81.2894 C.3         1 INH       0.1369
     20 C20       -17.9230   93.3990   82.6885 C.3         1 INH      -0.0087
     21 C21       -16.7485   94.1502   83.3865 C.3         1 INH      -0.0156
     22 C22       -16.4597   93.6369   84.8281 C.3         1 INH       0.0627
     23 N23       -16.5435   94.6560   85.7858 N.pl3       1 INH      -0.2723
     24 C24       -15.6303   95.1310   86.5544 C.cat       1 INH       0.2882
     25 N25       -15.9896   96.0306   87.3885 N.pl3       1 INH      -0.2849
     26 N26       -14.3995   94.7776   86.5597 N.pl3       1 INH      -0.2849
     27 C27       -17.1815   94.0064   80.3711 C.2         1 INH       0.2292
     28 O28       -16.7650   92.9422   79.9176 O.2         1 INH      -0.3823
     29 N29       -16.6847   95.1701   79.9536 N.am        1 INH      -0.2320
     30 C30       -15.5982   95.3876   79.1549 C.ar        1 INH       0.0663
     31 C31       -15.7609   96.2203   78.0244 C.ar        1 INH      -0.0413
     32 C32       -14.6817   96.4954   77.1711 C.ar        1 INH      -0.0755
     33 C33       -13.4076   95.9600   77.4441 C.ar        1 INH      -0.0772
     34 C34       -13.2191   95.1599   78.5897 C.ar        1 INH      -0.0755
     35 C35       -14.3048   94.8818   79.4382 C.ar        1 INH      -0.0413
     36 H1        -24.1680   89.3940   82.4177 H           1 INH       0.0303
     37 H2        -23.7009   89.1346   80.7302 H           1 INH       0.0303
     38 H3        -24.4648   90.6617   81.2126 H           1 INH       0.0303
     39 H4        -21.7567   89.6206   82.1552 H           1 INH       0.1023
     40 H5        -22.1706   90.4991   79.8074 H           1 INH       0.2052
     41 H6        -20.7371   90.5821   80.5834 H           1 INH       0.2052
     42 H7        -21.1568   92.3596   79.1864 H           1 INH       0.1101
     43 H8        -23.5436   93.0810   80.9167 H           1 INH       0.0368
     44 H9        -23.5386   92.4754   79.2658 H           1 INH       0.0368
     45 H10       -23.8401   94.7151   78.8117 H           1 INH       0.0429
     46 H11       -22.0942   94.6393   78.7283 H           1 INH       0.0429
     47 H12       -20.7975   95.9135   80.4334 H           1 INH       0.0557
     48 H13       -20.7781   97.6566   82.1032 H           1 INH       0.0599
     49 H14       -22.8611   98.4309   83.0855 H           1 INH       0.0559
     50 H15       -24.9687   97.4304   82.4084 H           1 INH       0.0599
     51 H16       -25.0001   95.6365   80.7950 H           1 INH       0.0557
     52 H17       -19.1318   92.7367   79.8574 H           1 INH       0.1885
     53 H18       -18.6936   94.9925   81.4411 H           1 INH       0.0805
     54 H19       -17.6605   92.3406   82.5888 H           1 INH       0.0314
     55 H20       -18.7928   93.4626   83.3487 H           1 INH       0.0314
     56 H21       -16.9840   95.2170   83.4063 H           1 INH       0.0301
     57 H22       -15.8425   94.0356   82.7848 H           1 INH       0.0301
     58 H23       -15.4937   93.1229   84.8371 H           1 INH       0.0689
     59 H24       -17.2035   92.8955   85.1273 H           1 INH       0.0689
     60 H25       -17.3910   95.0403   85.8958 H           1 INH       0.2642
     61 H26       -15.3627   96.4051   87.9739 H           1 INH       0.2615
     62 H27       -16.8817   96.3040   87.4186 H           1 INH       0.2615
     63 H28       -14.0869   94.1287   85.9672 H           1 INH       0.2615
     64 H29       -13.8050   95.1784   87.1609 H           1 INH       0.2615
     65 H30       -17.1905   95.9599   80.2059 H           1 INH       0.2257
     66 H31       -16.6782   96.6190   77.8097 H           1 INH       0.0502
     67 H32       -14.8138   97.0857   76.3456 H           1 INH       0.0577
     68 H33       -12.6215   96.1592   76.8217 H           1 INH       0.0487
     69 H34       -12.2906   94.7848   78.7982 H           1 INH       0.0577
     70 H35       -14.1413   94.3295   80.2797 H           1 INH       0.0502
@<TRIPOS>BOND
     1     1     2   1
     2     2     6   1
     3     2     3   1
     4     3     5  ar
     5     3     4  ar
     6     6     7   1
     7     7    16   1
     8     7     8   1
     9     8     9   1
    10     9    10   1
    11    10    15  ar
    12    10    11  ar
    13    11    12  ar
    14    12    13  ar
    15    13    14  ar
    16    14    15  ar
    17    16    18  am
    18    16    17   2
    19    18    19   1
    20    19    27   1
    21    19    20   1
    22    20    21   1
    23    21    22   1
    24    22    23   1
    25    23    24  ar
    26    24    26  ar
    27    24    25  ar
    28    27    29  am
    29    27    28   2
    30    29    30   1
    31    30    35  ar
    32    30    31  ar
    33    31    32  ar
    34    32    33  ar
    35    33    34  ar
    36    34    35  ar
    37     1    36   1
    38     1    37   1
    39     1    38   1
    40     2    39   1
    41     6    40   1
    42     6    41   1
    43     7    42   1
    44     8    43   1
    45     8    44   1
    46     9    45   1
    47     9    46   1
    48    11    47   1
    49    12    48   1
    50    13    49   1
    51    14    50   1
    52    15    51   1
    53    18    52   1
    54    19    53   1
    55    20    54   1
    56    20    55   1
    57    21    56   1
    58    21    57   1
    59    22    58   1
    60    22    59   1
    61    23    60   1
    62    25    61   1
    63    25    62   1
    64    26    63   1
    65    26    64   1
    66    29    65   1
    67    31    66   1
    68    32    67   1
    69    33    68   1
    70    34    69   1
    71    35    70   1
@<TRIPOS>SUBSTRUCTURE
     1  INH      1

