@<TRIPOS>MOLECULE
1sln_ligand_012
    70    71
SMALL
GAST_HUCK
****
This file was generated by PARSER (from files_GN.cpp)

@<TRIPOS>ATOM
      1 C1        -21.1880   92.3728   80.2764 C.3         1 INH      -0.0094
      2 C2        -20.4669   91.6519   81.4431 C.3         1 INH       0.0293
      3 C3        -20.9238   92.1035   82.7803 C.2         1 INH       0.0842
      4 O4        -22.2304   92.3328   83.0258 O.co2       1 INH      -0.5643
      5 O5        -20.1931   91.7733   83.8653 O.co2       1 INH      -0.5643
      6 N6        -18.9872   91.7094   81.2595 N.4         1 INH       0.2597
      7 C7        -18.1913   92.9176   81.6630 C.3         1 INH       0.0701
      8 C8        -16.9960   92.4532   82.5557 C.3         1 INH       0.0177
      9 C9        -16.1286   93.5990   83.1610 C.3         1 INH      -0.0119
     10 C10       -15.4799   93.1994   84.4424 C.ar        1 INH      -0.0427
     11 C11       -16.0405   93.5948   85.6820 C.ar        1 INH      -0.0603
     12 C12       -15.4675   93.1780   86.8977 C.ar        1 INH      -0.0686
     13 C13       -14.3277   92.3570   86.8932 C.ar        1 INH      -0.0687
     14 C14       -13.7605   91.9522   85.6714 C.ar        1 INH      -0.0686
     15 C15       -14.3343   92.3673   84.4537 C.ar        1 INH      -0.0603
     16 C16       -17.7315   93.6849   80.5064 C.2         1 INH       0.2270
     17 O17       -17.1713   93.0823   79.5971 O.2         1 INH      -0.3907
     18 N18       -17.8303   95.0142   80.5055 N.am        1 INH      -0.2605
     19 C19       -17.3504   95.9439   79.5054 C.3         1 INH       0.1369
     20 C20       -18.5315   96.7708   78.8701 C.3         1 INH      -0.0087
     21 C21       -19.9846   96.5147   79.3727 C.3         1 INH      -0.0156
     22 C22       -20.3098   97.0626   80.7978 C.3         1 INH       0.0627
     23 N23       -21.3787   97.9728   80.7470 N.pl3       1 INH      -0.2723
     24 C24       -22.3108   98.1776   81.6016 C.cat       1 INH       0.2882
     25 N25       -22.4272   97.5853   82.7317 N.pl3       1 INH      -0.2849
     26 N26       -23.1914   99.0470   81.2966 N.pl3       1 INH      -0.2849
     27 C27       -16.2684   96.7837   80.0334 C.2         1 INH       0.2292
     28 O28       -15.8583   96.6166   81.1774 O.2         1 INH      -0.3823
     29 N29       -15.7443   97.7506   79.2811 N.am        1 INH      -0.2320
     30 C30       -14.7442   98.6272   79.6097 C.ar        1 INH       0.0663
     31 C31       -13.5336   98.2236   80.2198 C.ar        1 INH      -0.0413
     32 C32       -12.5197   99.1576   80.4911 C.ar        1 INH      -0.0755
     33 C33       -12.7048  100.5146   80.1685 C.ar        1 INH      -0.0772
     34 C34       -13.9033  100.9315   79.5639 C.ar        1 INH      -0.0755
     35 C35       -14.9118   99.9904   79.2718 C.ar        1 INH      -0.0413
     36 H1        -22.2656   92.2002   80.3263 H           1 INH       0.0303
     37 H2        -20.8340   91.9904   79.3177 H           1 INH       0.0303
     38 H3        -21.0054   93.4446   80.3157 H           1 INH       0.0303
     39 H4        -20.7376   90.5951   81.3640 H           1 INH       0.1023
     40 H5        -18.8199   91.5399   80.2682 H           1 INH       0.2052
     41 H6        -18.6128   90.9082   81.7709 H           1 INH       0.2052
     42 H7        -18.8095   93.5676   82.2885 H           1 INH       0.1101
     43 H8        -16.3465   91.7886   81.9776 H           1 INH       0.0368
     44 H9        -17.4169   91.8598   83.3727 H           1 INH       0.0368
     45 H10       -16.7505   94.4828   83.3286 H           1 INH       0.0429
     46 H11       -15.3611   93.8957   82.4407 H           1 INH       0.0429
     47 H12       -16.8836   94.1740   85.7084 H           1 INH       0.0557
     48 H13       -15.8896   93.4631   87.7845 H           1 INH       0.0599
     49 H14       -13.9134   92.0514   87.7768 H           1 INH       0.0559
     50 H15       -12.9311   91.3552   85.6716 H           1 INH       0.0599
     51 H16       -13.9126   92.0572   83.5740 H           1 INH       0.0557
     52 H17       -18.2383   95.4164   81.2955 H           1 INH       0.1885
     53 H18       -16.8879   95.3764   78.6879 H           1 INH       0.0805
     54 H19       -18.5398   96.5547   77.7948 H           1 INH       0.0314
     55 H20       -18.3569   97.8462   78.9504 H           1 INH       0.0314
     56 H21       -20.1699   95.4379   79.3436 H           1 INH       0.0301
     57 H22       -20.6685   96.9527   78.6354 H           1 INH       0.0301
     58 H23       -19.4497   97.5861   81.2223 H           1 INH       0.0689
     59 H24       -20.5335   96.2170   81.4529 H           1 INH       0.0689
     60 H25       -21.4150   98.5061   79.9807 H           1 INH       0.2642
     61 H26       -23.1374   97.7942   83.3002 H           1 INH       0.2615
     62 H27       -21.7973   96.9479   82.9992 H           1 INH       0.2615
     63 H28       -23.1413   99.4967   80.4774 H           1 INH       0.2615
     64 H29       -23.8986   99.2361   81.8826 H           1 INH       0.2615
     65 H30       -16.1898   97.9237   78.4378 H           1 INH       0.2257
     66 H31       -13.3668   97.2383   80.4421 H           1 INH       0.0502
     67 H32       -11.6356   98.8567   80.9111 H           1 INH       0.0577
     68 H33       -11.9692  101.1982   80.3655 H           1 INH       0.0487
     69 H34       -14.0427  101.9167   79.3251 H           1 INH       0.0577
     70 H35       -15.7736  100.3057   78.8238 H           1 INH       0.0502
@<TRIPOS>BOND
     1     1     2   1
     2     2     6   1
     3     2     3   1
     4     3     5  ar
     5     3     4  ar
     6     6     7   1
     7     7    16   1
     8     7     8   1
     9     8     9   1
    10     9    10   1
    11    10    15  ar
    12    10    11  ar
    13    11    12  ar
    14    12    13  ar
    15    13    14  ar
    16    14    15  ar
    17    16    18  am
    18    16    17   2
    19    18    19   1
    20    19    27   1
    21    19    20   1
    22    20    21   1
    23    21    22   1
    24    22    23   1
    25    23    24  ar
    26    24    26  ar
    27    24    25  ar
    28    27    29  am
    29    27    28   2
    30    29    30   1
    31    30    35  ar
    32    30    31  ar
    33    31    32  ar
    34    32    33  ar
    35    33    34  ar
    36    34    35  ar
    37     1    36   1
    38     1    37   1
    39     1    38   1
    40     2    39   1
    41     6    40   1
    42     6    41   1
    43     7    42   1
    44     8    43   1
    45     8    44   1
    46     9    45   1
    47     9    46   1
    48    11    47   1
    49    12    48   1
    50    13    49   1
    51    14    50   1
    52    15    51   1
    53    18    52   1
    54    19    53   1
    55    20    54   1
    56    20    55   1
    57    21    56   1
    58    21    57   1
    59    22    58   1
    60    22    59   1
    61    23    60   1
    62    25    61   1
    63    25    62   1
    64    26    63   1
    65    26    64   1
    66    29    65   1
    67    31    66   1
    68    32    67   1
    69    33    68   1
    70    34    69   1
    71    35    70   1
@<TRIPOS>SUBSTRUCTURE
     1  INH      1

