@<TRIPOS>MOLECULE
1sln_ligand_051
    70    71
SMALL
GAST_HUCK
****
This file was generated by PARSER (from files_GN.cpp)

@<TRIPOS>ATOM
      1 C1        -24.3624   90.1150   82.7804 C.3         1 INH      -0.0094
      2 C2        -23.2615   90.7828   81.9224 C.3         1 INH       0.0293
      3 C3        -22.9927   92.1547   82.4006 C.2         1 INH       0.0842
      4 O4        -23.7140   93.2014   81.9368 O.co2       1 INH      -0.5643
      5 O5        -22.0431   92.3859   83.3325 O.co2       1 INH      -0.5643
      6 N6        -23.6879   90.8078   80.4948 N.4         1 INH       0.2597
      7 C7        -22.6768   91.1250   79.4460 C.3         1 INH       0.0701
      8 C8        -23.3678   90.9349   78.0579 C.3         1 INH       0.0177
      9 C9        -22.5242   91.3936   76.8322 C.3         1 INH      -0.0119
     10 C10       -22.8801   90.6493   75.5925 C.ar        1 INH      -0.0427
     11 C11       -23.8857   91.1379   74.7232 C.ar        1 INH      -0.0603
     12 C12       -24.2749   90.4031   73.5878 C.ar        1 INH      -0.0686
     13 C13       -23.6531   89.1751   73.2979 C.ar        1 INH      -0.0687
     14 C14       -22.6305   88.6912   74.1342 C.ar        1 INH      -0.0686
     15 C15       -22.2414   89.4277   75.2680 C.ar        1 INH      -0.0603
     16 C16       -22.0554   92.4294   79.6936 C.2         1 INH       0.2270
     17 O17       -21.1281   92.4631   80.4924 O.2         1 INH      -0.3907
     18 N18       -22.4756   93.5440   79.0961 N.am        1 INH      -0.2605
     19 C19       -21.9287   94.8777   79.1028 C.3         1 INH       0.1369
     20 C20       -23.0579   95.9228   79.3893 C.3         1 INH      -0.0087
     21 C21       -23.4834   96.1189   80.8781 C.3         1 INH      -0.0156
     22 C22       -24.9543   95.7534   81.2045 C.3         1 INH       0.0627
     23 N23       -25.8509   96.7521   80.8079 N.pl3       1 INH      -0.2723
     24 C24       -27.1070   96.8039   81.0574 C.cat       1 INH       0.2882
     25 N25       -27.7649   97.7939   80.5941 N.pl3       1 INH      -0.2849
     26 N26       -27.7498   95.9295   81.7319 N.pl3       1 INH      -0.2849
     27 C27       -20.6716   95.0650   79.8368 C.2         1 INH       0.2292
     28 O28       -20.5619   95.9822   80.6413 O.2         1 INH      -0.3823
     29 N29       -19.6396   94.2771   79.5461 N.am        1 INH      -0.2320
     30 C30       -18.3800   94.2632   80.0857 C.ar        1 INH       0.0663
     31 C31       -18.0988   94.4431   81.4625 C.ar        1 INH      -0.0413
     32 C32       -16.7733   94.4345   81.9344 C.ar        1 INH      -0.0755
     33 C33       -15.7097   94.2175   81.0408 C.ar        1 INH      -0.0772
     34 C34       -15.9757   94.0005   79.6777 C.ar        1 INH      -0.0755
     35 C35       -17.3017   94.0160   79.2073 C.ar        1 INH      -0.0413
     36 H1        -24.5255   89.0940   82.4282 H           1 INH       0.0303
     37 H2        -25.3073   90.6596   82.7048 H           1 INH       0.0303
     38 H3        -24.0600   90.0748   83.8291 H           1 INH       0.0303
     39 H4        -22.3531   90.1829   82.0479 H           1 INH       0.1023
     40 H5        -24.4654   91.4615   80.3947 H           1 INH       0.2052
     41 H6        -24.0565   89.8803   80.2807 H           1 INH       0.2052
     42 H7        -21.8900   90.3620   79.4795 H           1 INH       0.1101
     43 H8        -24.3282   91.4572   78.0605 H           1 INH       0.0368
     44 H9        -23.5806   89.8683   77.9341 H           1 INH       0.0368
     45 H10       -21.4668   91.2545   77.0727 H           1 INH       0.0429
     46 H11       -22.6738   92.4587   76.6461 H           1 INH       0.0429
     47 H12       -24.3536   92.0265   74.9188 H           1 INH       0.0557
     48 H13       -25.0131   90.7593   72.9761 H           1 INH       0.0599
     49 H14       -23.9409   88.6391   72.4764 H           1 INH       0.0559
     50 H15       -22.1699   87.8027   73.9215 H           1 INH       0.0599
     51 H16       -21.4962   89.0568   75.8629 H           1 INH       0.0557
     52 H17       -23.2727   93.4496   78.5535 H           1 INH       0.1885
     53 H18       -21.6533   95.0547   78.0576 H           1 INH       0.0805
     54 H19       -23.9371   95.6576   78.7949 H           1 INH       0.0314
     55 H20       -22.7190   96.8904   79.0045 H           1 INH       0.0314
     56 H21       -23.3373   97.1691   81.1474 H           1 INH       0.0301
     57 H22       -22.8306   95.5323   81.5277 H           1 INH       0.0301
     58 H23       -25.0394   95.6090   82.2855 H           1 INH       0.0689
     59 H24       -25.2094   94.8150   80.7120 H           1 INH       0.0689
     60 H25       -25.4986   97.4537   80.2986 H           1 INH       0.2642
     61 H26       -28.6841   97.8642   80.7535 H           1 INH       0.2615
     62 H27       -27.3307   98.4535   80.0924 H           1 INH       0.2615
     63 H28       -27.3053   95.1894   82.0931 H           1 INH       0.2615
     64 H29       -28.6690   96.0294   81.8750 H           1 INH       0.2615
     65 H30       -19.7788   93.6693   78.8011 H           1 INH       0.2257
     66 H31       -18.8568   94.5661   82.1362 H           1 INH       0.0502
     67 H32       -16.5830   94.5811   82.9284 H           1 INH       0.0577
     68 H33       -14.7465   94.2143   81.3818 H           1 INH       0.0487
     69 H34       -15.2054   93.8377   79.0281 H           1 INH       0.0577
     70 H35       -17.4745   93.8670   78.2102 H           1 INH       0.0502
@<TRIPOS>BOND
     1     1     2   1
     2     2     6   1
     3     2     3   1
     4     3     5  ar
     5     3     4  ar
     6     6     7   1
     7     7    16   1
     8     7     8   1
     9     8     9   1
    10     9    10   1
    11    10    15  ar
    12    10    11  ar
    13    11    12  ar
    14    12    13  ar
    15    13    14  ar
    16    14    15  ar
    17    16    18  am
    18    16    17   2
    19    18    19   1
    20    19    27   1
    21    19    20   1
    22    20    21   1
    23    21    22   1
    24    22    23   1
    25    23    24  ar
    26    24    26  ar
    27    24    25  ar
    28    27    29  am
    29    27    28   2
    30    29    30   1
    31    30    35  ar
    32    30    31  ar
    33    31    32  ar
    34    32    33  ar
    35    33    34  ar
    36    34    35  ar
    37     1    36   1
    38     1    37   1
    39     1    38   1
    40     2    39   1
    41     6    40   1
    42     6    41   1
    43     7    42   1
    44     8    43   1
    45     8    44   1
    46     9    45   1
    47     9    46   1
    48    11    47   1
    49    12    48   1
    50    13    49   1
    51    14    50   1
    52    15    51   1
    53    18    52   1
    54    19    53   1
    55    20    54   1
    56    20    55   1
    57    21    56   1
    58    21    57   1
    59    22    58   1
    60    22    59   1
    61    23    60   1
    62    25    61   1
    63    25    62   1
    64    26    63   1
    65    26    64   1
    66    29    65   1
    67    31    66   1
    68    32    67   1
    69    33    68   1
    70    34    69   1
    71    35    70   1
@<TRIPOS>SUBSTRUCTURE
     1  INH      1

