@<TRIPOS>MOLECULE
1sln_ligand_040
    70    71
SMALL
GAST_HUCK
****
This file was generated by PARSER (from files_GN.cpp)

@<TRIPOS>ATOM
      1 C1        -22.0882   90.0118   81.7193 C.3         1 INH      -0.0094
      2 C2        -22.7128   90.8870   82.8392 C.3         1 INH       0.0293
      3 C3        -23.8631   90.2002   83.4770 C.2         1 INH       0.0842
      4 O4        -23.7761   88.8758   83.7619 O.co2       1 INH      -0.5643
      5 O5        -24.6892   90.9047   84.2900 O.co2       1 INH      -0.5643
      6 N6        -23.1631   92.2383   82.3802 N.4         1 INH       0.2597
      7 C7        -22.3080   93.0625   81.4774 C.3         1 INH       0.0701
      8 C8        -22.9712   94.4544   81.1721 C.3         1 INH       0.0177
      9 C9        -23.2169   94.7278   79.6515 C.3         1 INH      -0.0119
     10 C10       -23.6122   96.1284   79.3355 C.ar        1 INH      -0.0427
     11 C11       -22.8467   96.9102   78.4362 C.ar        1 INH      -0.0603
     12 C12       -23.2245   98.2296   78.1279 C.ar        1 INH      -0.0686
     13 C13       -24.3696   98.7872   78.7204 C.ar        1 INH      -0.0687
     14 C14       -25.1430   98.0247   79.6100 C.ar        1 INH      -0.0686
     15 C15       -24.7737   96.7005   79.9102 C.ar        1 INH      -0.0603
     16 C16       -20.9296   93.2310   81.9137 C.2         1 INH       0.2270
     17 O17       -20.6364   93.1423   83.0990 O.2         1 INH      -0.3907
     18 N18       -20.0337   93.5622   80.9945 N.am        1 INH      -0.2605
     19 C19       -18.6167   93.6964   81.1534 C.3         1 INH       0.1369
     20 C20       -18.0229   92.3575   81.6865 C.3         1 INH      -0.0087
     21 C21       -16.4789   92.2004   81.5718 C.3         1 INH      -0.0156
     22 C22       -15.9834   90.7875   81.9499 C.3         1 INH       0.0627
     23 N23       -16.2220   90.4787   83.2892 N.pl3       1 INH      -0.2723
     24 C24       -15.5759   90.8826   84.3148 C.cat       1 INH       0.2882
     25 N25       -15.9691   90.4834   85.4651 N.pl3       1 INH      -0.2849
     26 N26       -14.5569   91.6603   84.2815 N.pl3       1 INH      -0.2849
     27 C27       -18.0895   94.0953   79.8553 C.2         1 INH       0.2292
     28 O28       -17.6742   93.2077   79.1213 O.2         1 INH      -0.3823
     29 N29       -18.0359   95.3841   79.5320 N.am        1 INH      -0.2320
     30 C30       -17.6259   95.9910   78.3729 C.ar        1 INH       0.0663
     31 C31       -18.0365   95.6093   77.0693 C.ar        1 INH      -0.0413
     32 C32       -17.5703   96.2991   75.9359 C.ar        1 INH      -0.0755
     33 C33       -16.6900   97.3801   76.0798 C.ar        1 INH      -0.0772
     34 C34       -16.2992   97.7933   77.3637 C.ar        1 INH      -0.0755
     35 C35       -16.7630   97.1017   78.5005 C.ar        1 INH      -0.0413
     36 H1        -21.7817   89.0456   82.1202 H           1 INH       0.0303
     37 H2        -21.1955   90.4849   81.3127 H           1 INH       0.0303
     38 H3        -22.8049   89.8499   80.9082 H           1 INH       0.0303
     39 H4        -21.9547   91.0220   83.6132 H           1 INH       0.1023
     40 H5        -23.3550   92.7957   83.2159 H           1 INH       0.2052
     41 H6        -24.0532   92.1052   81.8924 H           1 INH       0.2052
     42 H7        -22.2944   92.4947   80.5415 H           1 INH       0.1101
     43 H8        -22.3597   95.2744   81.5773 H           1 INH       0.0368
     44 H9        -23.9370   94.5226   81.6906 H           1 INH       0.0368
     45 H10       -23.9990   94.0525   79.2973 H           1 INH       0.0429
     46 H11       -22.3058   94.4724   79.1059 H           1 INH       0.0429
     47 H12       -22.0111   96.5255   77.9926 H           1 INH       0.0557
     48 H13       -22.6662   98.7813   77.4697 H           1 INH       0.0599
     49 H14       -24.6420   99.7524   78.4969 H           1 INH       0.0559
     50 H15       -25.9786   98.4323   80.0383 H           1 INH       0.0599
     51 H16       -25.3526   96.1604   80.5535 H           1 INH       0.0557
     52 H17       -20.3743   93.6871   80.0931 H           1 INH       0.1885
     53 H18       -18.4142   94.4762   81.8942 H           1 INH       0.0805
     54 H19       -18.5008   91.5042   81.1693 H           1 INH       0.0314
     55 H20       -18.2905   92.2704   82.7528 H           1 INH       0.0314
     56 H21       -15.9958   92.9547   82.2035 H           1 INH       0.0301
     57 H22       -16.1787   92.4070   80.5368 H           1 INH       0.0301
     58 H23       -14.9168   90.6823   81.7256 H           1 INH       0.0689
     59 H24       -16.5085   90.0501   81.3389 H           1 INH       0.0689
     60 H25       -16.9475   89.9096   83.4502 H           1 INH       0.2642
     61 H26       -15.5110   90.7448   86.2366 H           1 INH       0.2615
     62 H27       -16.7084   89.9170   85.5259 H           1 INH       0.2615
     63 H28       -14.2294   91.9764   83.4626 H           1 INH       0.2615
     64 H29       -14.1262   91.9100   85.0749 H           1 INH       0.2615
     65 H30       -18.3062   95.9914   80.2385 H           1 INH       0.2257
     66 H31       -18.7055   94.8506   76.9204 H           1 INH       0.0502
     67 H32       -17.8718   96.0109   75.0009 H           1 INH       0.0577
     68 H33       -16.3450   97.8780   75.2598 H           1 INH       0.0487
     69 H34       -15.6704   98.5914   77.4802 H           1 INH       0.0577
     70 H35       -16.4664   97.4154   79.4287 H           1 INH       0.0502
@<TRIPOS>BOND
     1     1     2   1
     2     2     6   1
     3     2     3   1
     4     3     5  ar
     5     3     4  ar
     6     6     7   1
     7     7    16   1
     8     7     8   1
     9     8     9   1
    10     9    10   1
    11    10    15  ar
    12    10    11  ar
    13    11    12  ar
    14    12    13  ar
    15    13    14  ar
    16    14    15  ar
    17    16    18  am
    18    16    17   2
    19    18    19   1
    20    19    27   1
    21    19    20   1
    22    20    21   1
    23    21    22   1
    24    22    23   1
    25    23    24  ar
    26    24    26  ar
    27    24    25  ar
    28    27    29  am
    29    27    28   2
    30    29    30   1
    31    30    35  ar
    32    30    31  ar
    33    31    32  ar
    34    32    33  ar
    35    33    34  ar
    36    34    35  ar
    37     1    36   1
    38     1    37   1
    39     1    38   1
    40     2    39   1
    41     6    40   1
    42     6    41   1
    43     7    42   1
    44     8    43   1
    45     8    44   1
    46     9    45   1
    47     9    46   1
    48    11    47   1
    49    12    48   1
    50    13    49   1
    51    14    50   1
    52    15    51   1
    53    18    52   1
    54    19    53   1
    55    20    54   1
    56    20    55   1
    57    21    56   1
    58    21    57   1
    59    22    58   1
    60    22    59   1
    61    23    60   1
    62    25    61   1
    63    25    62   1
    64    26    63   1
    65    26    64   1
    66    29    65   1
    67    31    66   1
    68    32    67   1
    69    33    68   1
    70    34    69   1
    71    35    70   1
@<TRIPOS>SUBSTRUCTURE
     1  INH      1

