@<TRIPOS>MOLECULE
1sln_ligand_046
    70    71
SMALL
GAST_HUCK
****
This file was generated by PARSER (from files_GN.cpp)

@<TRIPOS>ATOM
      1 C1        -20.9459   91.3975   83.1356 C.3         1 INH      -0.0094
      2 C2        -22.4308   91.3330   82.6784 C.3         1 INH       0.0293
      3 C3        -22.8395   89.9146   82.5872 C.2         1 INH       0.0842
      4 O4        -22.9299   89.1562   83.7008 O.co2       1 INH      -0.5643
      5 O5        -23.0891   89.3138   81.4005 O.co2       1 INH      -0.5643
      6 N6        -22.8303   92.1212   81.4720 N.4         1 INH       0.2597
      7 C7        -21.9194   92.3283   80.3110 C.3         1 INH       0.0701
      8 C8        -22.7349   92.8886   79.1011 C.3         1 INH       0.0177
      9 C9        -21.9248   92.9974   77.7733 C.3         1 INH      -0.0119
     10 C10       -22.7969   93.0520   76.5670 C.ar        1 INH      -0.0427
     11 C11       -23.7474   94.0912   76.4304 C.ar        1 INH      -0.0603
     12 C12       -24.5760   94.1633   75.2961 C.ar        1 INH      -0.0686
     13 C13       -24.4691   93.1946   74.2849 C.ar        1 INH      -0.0687
     14 C14       -23.5262   92.1593   74.4054 C.ar        1 INH      -0.0686
     15 C15       -22.6930   92.0883   75.5375 C.ar        1 INH      -0.0603
     16 C16       -20.8500   93.2402   80.6878 C.2         1 INH       0.2270
     17 O17       -21.1165   94.4267   80.8556 O.2         1 INH      -0.3907
     18 N18       -19.6149   92.7809   80.8640 N.am        1 INH      -0.2605
     19 C19       -18.4708   93.5525   81.2417 C.3         1 INH       0.1369
     20 C20       -17.5658   92.7464   82.2205 C.3         1 INH      -0.0087
     21 C21       -16.2266   93.4563   82.6035 C.3         1 INH      -0.0156
     22 C22       -15.6848   93.0858   84.0179 C.3         1 INH       0.0627
     23 N23       -16.2468   93.8880   85.0227 N.pl3       1 INH      -0.2723
     24 C24       -16.0295   93.8156   86.2838 C.cat       1 INH       0.2882
     25 N25       -16.6018   94.6673   87.0399 N.pl3       1 INH      -0.2849
     26 N26       -15.2741   92.9410   86.8407 N.pl3       1 INH      -0.2849
     27 C27       -17.8343   93.9745   80.0120 C.2         1 INH       0.2292
     28 O28       -17.3136   93.1341   79.2876 O.2         1 INH      -0.3823
     29 N29       -17.8911   95.2569   79.6595 N.am        1 INH      -0.2320
     30 C30       -17.5090   95.8118   78.4802 C.ar        1 INH       0.0663
     31 C31       -18.0474   95.3954   77.2415 C.ar        1 INH      -0.0413
     32 C32       -17.6692   96.0431   76.0501 C.ar        1 INH      -0.0755
     33 C33       -16.7413   97.0957   76.0868 C.ar        1 INH      -0.0772
     34 C34       -16.2109   97.5223   77.3185 C.ar        1 INH      -0.0755
     35 C35       -16.6061   96.8957   78.5121 C.ar        1 INH      -0.0413
     36 H1        -20.8154   90.9201   84.1063 H           1 INH       0.0303
     37 H2        -20.6149   92.4354   83.2342 H           1 INH       0.0303
     38 H3        -20.2931   90.8790   82.4235 H           1 INH       0.0303
     39 H4        -23.0175   91.7590   83.4941 H           1 INH       0.1023
     40 H5        -23.1122   93.0508   81.8021 H           1 INH       0.2052
     41 H6        -23.6783   91.6689   81.1099 H           1 INH       0.2052
     42 H7        -21.5218   91.3548   80.0122 H           1 INH       0.1101
     43 H8        -23.1477   93.8669   79.3668 H           1 INH       0.0368
     44 H9        -23.5898   92.2309   78.9138 H           1 INH       0.0368
     45 H10       -21.2404   92.1433   77.7144 H           1 INH       0.0429
     46 H11       -21.2991   93.8937   77.7759 H           1 INH       0.0429
     47 H12       -23.8383   94.8095   77.1560 H           1 INH       0.0557
     48 H13       -25.2594   94.9213   75.2090 H           1 INH       0.0599
     49 H14       -25.0705   93.2456   73.4621 H           1 INH       0.0559
     50 H15       -23.4454   91.4527   73.6681 H           1 INH       0.0599
     51 H16       -22.0143   91.3248   75.6093 H           1 INH       0.0557
     52 H17       -19.4633   91.8378   80.6645 H           1 INH       0.1885
     53 H18       -18.7892   94.4375   81.8122 H           1 INH       0.0805
     54 H19       -17.3376   91.7647   81.7954 H           1 INH       0.0314
     55 H20       -18.1484   92.5745   83.1311 H           1 INH       0.0314
     56 H21       -16.3426   94.5442   82.5493 H           1 INH       0.0301
     57 H22       -15.4732   93.1830   81.8582 H           1 INH       0.0301
     58 H23       -14.6001   93.2344   84.0230 H           1 INH       0.0689
     59 H24       -15.8800   92.0295   84.2212 H           1 INH       0.0689
     60 H25       -16.8262   94.5674   84.7417 H           1 INH       0.2642
     61 H26       -16.4797   94.6319   87.9656 H           1 INH       0.2615
     62 H27       -17.1639   95.3200   86.6781 H           1 INH       0.2615
     63 H28       -14.8408   92.2954   86.3247 H           1 INH       0.2615
     64 H29       -15.1637   92.9464   87.7673 H           1 INH       0.2615
     65 H30       -18.2191   95.8787   80.3325 H           1 INH       0.2257
     66 H31       -18.7399   94.6414   77.1961 H           1 INH       0.0502
     67 H32       -18.0658   95.7420   75.1525 H           1 INH       0.0577
     68 H33       -16.4565   97.5620   75.2235 H           1 INH       0.0487
     69 H34       -15.5390   98.2928   77.3527 H           1 INH       0.0577
     70 H35       -16.2230   97.2147   79.4033 H           1 INH       0.0502
@<TRIPOS>BOND
     1     1     2   1
     2     2     6   1
     3     2     3   1
     4     3     5  ar
     5     3     4  ar
     6     6     7   1
     7     7    16   1
     8     7     8   1
     9     8     9   1
    10     9    10   1
    11    10    15  ar
    12    10    11  ar
    13    11    12  ar
    14    12    13  ar
    15    13    14  ar
    16    14    15  ar
    17    16    18  am
    18    16    17   2
    19    18    19   1
    20    19    27   1
    21    19    20   1
    22    20    21   1
    23    21    22   1
    24    22    23   1
    25    23    24  ar
    26    24    26  ar
    27    24    25  ar
    28    27    29  am
    29    27    28   2
    30    29    30   1
    31    30    35  ar
    32    30    31  ar
    33    31    32  ar
    34    32    33  ar
    35    33    34  ar
    36    34    35  ar
    37     1    36   1
    38     1    37   1
    39     1    38   1
    40     2    39   1
    41     6    40   1
    42     6    41   1
    43     7    42   1
    44     8    43   1
    45     8    44   1
    46     9    45   1
    47     9    46   1
    48    11    47   1
    49    12    48   1
    50    13    49   1
    51    14    50   1
    52    15    51   1
    53    18    52   1
    54    19    53   1
    55    20    54   1
    56    20    55   1
    57    21    56   1
    58    21    57   1
    59    22    58   1
    60    22    59   1
    61    23    60   1
    62    25    61   1
    63    25    62   1
    64    26    63   1
    65    26    64   1
    66    29    65   1
    67    31    66   1
    68    32    67   1
    69    33    68   1
    70    34    69   1
    71    35    70   1
@<TRIPOS>SUBSTRUCTURE
     1  INH      1

