@<TRIPOS>MOLECULE
1sln_ligand_008
    70    71
SMALL
GAST_HUCK
****
This file was generated by PARSER (from files_GN.cpp)

@<TRIPOS>ATOM
      1 C1        -21.2956   91.1913   83.1994 C.3         1 INH      -0.0094
      2 C2        -20.6135   92.4287   82.5713 C.3         1 INH       0.0293
      3 C3        -21.4961   93.1126   81.5981 C.2         1 INH       0.0842
      4 O4        -21.4888   94.4625   81.5139 O.co2       1 INH      -0.5643
      5 O5        -22.1551   92.4240   80.6365 O.co2       1 INH      -0.5643
      6 N6        -19.3224   92.0476   81.9314 N.4         1 INH       0.2597
      7 C7        -18.1685   92.9881   82.0916 C.3         1 INH       0.0701
      8 C8        -17.2960   92.5569   83.3096 C.3         1 INH       0.0177
      9 C9        -16.1150   93.5200   83.6334 C.3         1 INH      -0.0119
     10 C10       -15.3880   93.1227   84.8674 C.ar        1 INH      -0.0427
     11 C11       -15.8749   93.5001   86.1427 C.ar        1 INH      -0.0603
     12 C12       -15.1983   93.1091   87.3160 C.ar        1 INH      -0.0686
     13 C13       -14.0330   92.3335   87.2299 C.ar        1 INH      -0.0687
     14 C14       -13.5342   91.9505   85.9722 C.ar        1 INH      -0.0686
     15 C15       -14.2036   92.3442   84.7990 C.ar        1 INH      -0.0603
     16 C16       -17.3850   93.0660   80.8625 C.2         1 INH       0.2270
     17 O17       -17.0550   92.0315   80.2903 O.2         1 INH      -0.3907
     18 N18       -16.9492   94.2551   80.4570 N.am        1 INH      -0.2605
     19 C19       -16.0834   94.5608   79.3521 C.3         1 INH       0.1369
     20 C20       -16.7261   95.6414   78.4243 C.3         1 INH      -0.0087
     21 C21       -18.0763   95.2433   77.7616 C.3         1 INH      -0.0156
     22 C22       -19.3354   95.5011   78.6394 C.3         1 INH       0.0627
     23 N23       -20.5105   94.9337   78.1327 N.pl3       1 INH      -0.2723
     24 C24       -20.8241   93.6938   78.0985 C.cat       1 INH       0.2882
     25 N25       -21.9704   93.3801   77.6302 N.pl3       1 INH      -0.2849
     26 N26       -20.0800   92.7348   78.5066 N.pl3       1 INH      -0.2849
     27 C27       -14.7859   95.0274   79.8389 C.2         1 INH       0.2292
     28 O28       -14.7460   95.6775   80.8787 O.2         1 INH      -0.3823
     29 N29       -13.7111   94.8144   79.0819 N.am        1 INH      -0.2320
     30 C30       -12.3935   95.1760   79.2373 C.ar        1 INH       0.0663
     31 C31       -11.8575   95.9465   80.3004 C.ar        1 INH      -0.0413
     32 C32       -10.4871   96.2572   80.3554 C.ar        1 INH      -0.0755
     33 C33        -9.6200   95.7993   79.3500 C.ar        1 INH      -0.0772
     34 C34       -10.1286   95.0387   78.2814 C.ar        1 INH      -0.0755
     35 C35       -11.5048   94.7336   78.2296 C.ar        1 INH      -0.0413
     36 H1        -22.2872   91.4493   83.5800 H           1 INH       0.0303
     37 H2        -20.6908   90.8320   84.0348 H           1 INH       0.0303
     38 H3        -21.3934   90.3888   82.4648 H           1 INH       0.0303
     39 H4        -20.4279   93.1168   83.3996 H           1 INH       0.1023
     40 H5        -19.4995   91.9066   80.9329 H           1 INH       0.2052
     41 H6        -19.0338   91.1435   82.3159 H           1 INH       0.2052
     42 H7        -18.5595   93.9896   82.3095 H           1 INH       0.1101
     43 H8        -16.8981   91.5538   83.1318 H           1 INH       0.0368
     44 H9        -17.9474   92.5004   84.1845 H           1 INH       0.0368
     45 H10       -16.4905   94.5421   83.7447 H           1 INH       0.0429
     46 H11       -15.4221   93.5304   82.7891 H           1 INH       0.0429
     47 H12       -16.7238   94.0631   86.2235 H           1 INH       0.0557
     48 H13       -15.5630   93.3875   88.2305 H           1 INH       0.0599
     49 H14       -13.5435   92.0454   88.0832 H           1 INH       0.0559
     50 H15       -12.6841   91.3859   85.9097 H           1 INH       0.0599
     51 H16       -13.8289   92.0556   83.8929 H           1 INH       0.0557
     52 H17       -17.2165   95.0172   80.9970 H           1 INH       0.1885
     53 H18       -15.9206   93.6594   78.7515 H           1 INH       0.0805
     54 H19       -16.0224   95.8525   77.6116 H           1 INH       0.0314
     55 H20       -16.8598   96.5748   78.9771 H           1 INH       0.0314
     56 H21       -18.0241   94.1976   77.4591 H           1 INH       0.0301
     57 H22       -18.1959   95.8302   76.8458 H           1 INH       0.0301
     58 H23       -19.4917   96.5817   78.6862 H           1 INH       0.0689
     59 H24       -19.1980   95.1511   79.6636 H           1 INH       0.0689
     60 H25       -21.1590   95.5387   77.8255 H           1 INH       0.2642
     61 H26       -22.2311   92.4827   77.5903 H           1 INH       0.2615
     62 H27       -22.5526   94.0453   77.3231 H           1 INH       0.2615
     63 H28       -19.2313   92.9091   78.8553 H           1 INH       0.2615
     64 H29       -20.3844   91.8513   78.4597 H           1 INH       0.2615
     65 H30       -13.8981   94.3203   78.2637 H           1 INH       0.2257
     66 H31       -12.4497   96.2948   81.0522 H           1 INH       0.0502
     67 H32       -10.1189   96.8135   81.1322 H           1 INH       0.0577
     68 H33        -8.6211   96.0197   79.3909 H           1 INH       0.0487
     69 H34        -9.5014   94.7097   77.5478 H           1 INH       0.0577
     70 H35       -11.8453   94.1774   77.4400 H           1 INH       0.0502
@<TRIPOS>BOND
     1     1     2   1
     2     2     6   1
     3     2     3   1
     4     3     5  ar
     5     3     4  ar
     6     6     7   1
     7     7    16   1
     8     7     8   1
     9     8     9   1
    10     9    10   1
    11    10    15  ar
    12    10    11  ar
    13    11    12  ar
    14    12    13  ar
    15    13    14  ar
    16    14    15  ar
    17    16    18  am
    18    16    17   2
    19    18    19   1
    20    19    27   1
    21    19    20   1
    22    20    21   1
    23    21    22   1
    24    22    23   1
    25    23    24  ar
    26    24    26  ar
    27    24    25  ar
    28    27    29  am
    29    27    28   2
    30    29    30   1
    31    30    35  ar
    32    30    31  ar
    33    31    32  ar
    34    32    33  ar
    35    33    34  ar
    36    34    35  ar
    37     1    36   1
    38     1    37   1
    39     1    38   1
    40     2    39   1
    41     6    40   1
    42     6    41   1
    43     7    42   1
    44     8    43   1
    45     8    44   1
    46     9    45   1
    47     9    46   1
    48    11    47   1
    49    12    48   1
    50    13    49   1
    51    14    50   1
    52    15    51   1
    53    18    52   1
    54    19    53   1
    55    20    54   1
    56    20    55   1
    57    21    56   1
    58    21    57   1
    59    22    58   1
    60    22    59   1
    61    23    60   1
    62    25    61   1
    63    25    62   1
    64    26    63   1
    65    26    64   1
    66    29    65   1
    67    31    66   1
    68    32    67   1
    69    33    68   1
    70    34    69   1
    71    35    70   1
@<TRIPOS>SUBSTRUCTURE
     1  INH      1

