@<TRIPOS>MOLECULE
1sln_ligand_035
    70    71
SMALL
GAST_HUCK
****
This file was generated by PARSER (from files_GN.cpp)

@<TRIPOS>ATOM
      1 C1        -25.3093   92.2347   83.7537 C.3         1 INH      -0.0094
      2 C2        -24.6705   91.6351   82.4758 C.3         1 INH       0.0293
      3 C3        -23.3706   91.0020   82.8021 C.2         1 INH       0.0842
      4 O4        -23.1256   89.7310   82.3924 O.co2       1 INH      -0.5643
      5 O5        -22.4101   91.6818   83.4737 O.co2       1 INH      -0.5643
      6 N6        -24.5941   92.7030   81.4366 N.4         1 INH       0.2597
      7 C7        -23.5671   92.5752   80.3620 C.3         1 INH       0.0701
      8 C8        -23.9380   93.4604   79.1214 C.3         1 INH       0.0177
      9 C9        -23.1078   93.1816   77.8274 C.3         1 INH      -0.0119
     10 C10       -21.6407   93.3625   78.0050 C.ar        1 INH      -0.0427
     11 C11       -21.0409   94.6276   77.7939 C.ar        1 INH      -0.0603
     12 C12       -19.6619   94.8217   78.0142 C.ar        1 INH      -0.0686
     13 C13       -18.8644   93.7525   78.4589 C.ar        1 INH      -0.0687
     14 C14       -19.4418   92.4857   78.6603 C.ar        1 INH      -0.0686
     15 C15       -20.8165   92.2908   78.4274 C.ar        1 INH      -0.0603
     16 C16       -22.2567   92.9341   80.8962 C.2         1 INH       0.2270
     17 O17       -21.3941   92.0684   80.9924 O.2         1 INH      -0.3907
     18 N18       -22.0257   94.1879   81.2662 N.am        1 INH      -0.2605
     19 C19       -20.7384   94.7942   81.4867 C.3         1 INH       0.1369
     20 C20       -20.9013   96.3183   81.7910 C.3         1 INH      -0.0087
     21 C21       -21.8959   97.0615   80.8293 C.3         1 INH      -0.0156
     22 C22       -23.2476   97.4766   81.4842 C.3         1 INH       0.0627
     23 N23       -23.2314   98.8266   81.8691 N.pl3       1 INH      -0.2723
     24 C24       -23.5883   99.3655   82.9760 C.cat       1 INH       0.2882
     25 N25       -24.0254   98.7498   84.0060 N.pl3       1 INH      -0.2849
     26 N26       -23.4925  100.6383   83.0546 N.pl3       1 INH      -0.2849
     27 C27       -19.9483   94.1069   82.5131 C.2         1 INH       0.2292
     28 O28       -20.5439   93.4958   83.3987 O.2         1 INH      -0.3823
     29 N29       -18.6258   94.0146   82.3458 N.am        1 INH      -0.2320
     30 C30       -17.6893   93.4351   83.1505 C.ar        1 INH       0.0663
     31 C31       -16.8398   92.4623   82.5769 C.ar        1 INH      -0.0413
     32 C32       -15.8324   91.8436   83.3425 C.ar        1 INH      -0.0755
     33 C33       -15.6609   92.1978   84.6934 C.ar        1 INH      -0.0772
     34 C34       -16.4827   93.1817   85.2708 C.ar        1 INH      -0.0755
     35 C35       -17.4962   93.7905   84.5073 C.ar        1 INH      -0.0413
     36 H1        -25.3905   91.4725   84.5393 H           1 INH       0.0303
     37 H2        -26.3134   92.6060   83.5266 H           1 INH       0.0303
     38 H3        -24.6978   93.0648   84.1252 H           1 INH       0.0303
     39 H4        -25.3534   90.8650   82.0953 H           1 INH       0.1023
     40 H5        -24.4548   93.5993   81.9117 H           1 INH       0.2052
     41 H6        -25.5099   92.7349   80.9867 H           1 INH       0.2052
     42 H7        -23.5580   91.5413   80.0037 H           1 INH       0.1101
     43 H8        -23.8818   94.5282   79.3733 H           1 INH       0.0368
     44 H9        -24.9812   93.2562   78.8602 H           1 INH       0.0368
     45 H10       -23.4427   93.8620   77.0322 H           1 INH       0.0429
     46 H11       -23.3335   92.1671   77.4811 H           1 INH       0.0429
     47 H12       -21.6098   95.4257   77.4964 H           1 INH       0.0557
     48 H13       -19.2399   95.7412   77.8531 H           1 INH       0.0599
     49 H14       -17.8636   93.8922   78.6260 H           1 INH       0.0559
     50 H15       -18.8640   91.7177   79.0144 H           1 INH       0.0599
     51 H16       -21.2075   91.3509   78.5489 H           1 INH       0.0557
     52 H17       -22.7884   94.7908   81.2575 H           1 INH       0.1885
     53 H18       -20.2189   94.7357   80.5188 H           1 INH       0.0805
     54 H19       -19.9168   96.7819   81.6732 H           1 INH       0.0314
     55 H20       -21.1921   96.4612   82.8403 H           1 INH       0.0314
     56 H21       -22.1247   96.4181   79.9745 H           1 INH       0.0301
     57 H22       -21.3986   97.9463   80.4165 H           1 INH       0.0301
     58 H23       -23.5048   96.7915   82.3033 H           1 INH       0.0689
     59 H24       -24.0368   97.3926   80.7289 H           1 INH       0.0689
     60 H25       -22.9228   99.4235   81.2105 H           1 INH       0.2642
     61 H26       -24.2725   99.2414   84.7719 H           1 INH       0.2615
     62 H27       -24.1055   97.8170   84.0057 H           1 INH       0.2615
     63 H28       -23.1725  101.1368   82.3335 H           1 INH       0.2615
     64 H29       -23.7383  101.0818   83.8379 H           1 INH       0.2615
     65 H30       -18.2778   94.3784   81.5106 H           1 INH       0.2257
     66 H31       -16.9449   92.1967   81.5945 H           1 INH       0.0502
     67 H32       -15.2268   91.1342   82.9201 H           1 INH       0.0577
     68 H33       -14.9301   91.7480   85.2524 H           1 INH       0.0487
     69 H34       -16.3420   93.4586   86.2456 H           1 INH       0.0577
     70 H35       -18.0560   94.5294   84.9338 H           1 INH       0.0502
@<TRIPOS>BOND
     1     1     2   1
     2     2     6   1
     3     2     3   1
     4     3     5  ar
     5     3     4  ar
     6     6     7   1
     7     7    16   1
     8     7     8   1
     9     8     9   1
    10     9    10   1
    11    10    15  ar
    12    10    11  ar
    13    11    12  ar
    14    12    13  ar
    15    13    14  ar
    16    14    15  ar
    17    16    18  am
    18    16    17   2
    19    18    19   1
    20    19    27   1
    21    19    20   1
    22    20    21   1
    23    21    22   1
    24    22    23   1
    25    23    24  ar
    26    24    26  ar
    27    24    25  ar
    28    27    29  am
    29    27    28   2
    30    29    30   1
    31    30    35  ar
    32    30    31  ar
    33    31    32  ar
    34    32    33  ar
    35    33    34  ar
    36    34    35  ar
    37     1    36   1
    38     1    37   1
    39     1    38   1
    40     2    39   1
    41     6    40   1
    42     6    41   1
    43     7    42   1
    44     8    43   1
    45     8    44   1
    46     9    45   1
    47     9    46   1
    48    11    47   1
    49    12    48   1
    50    13    49   1
    51    14    50   1
    52    15    51   1
    53    18    52   1
    54    19    53   1
    55    20    54   1
    56    20    55   1
    57    21    56   1
    58    21    57   1
    59    22    58   1
    60    22    59   1
    61    23    60   1
    62    25    61   1
    63    25    62   1
    64    26    63   1
    65    26    64   1
    66    29    65   1
    67    31    66   1
    68    32    67   1
    69    33    68   1
    70    34    69   1
    71    35    70   1
@<TRIPOS>SUBSTRUCTURE
     1  INH      1

