@<TRIPOS>MOLECULE
1sln_ligand_050
    70    71
SMALL
GAST_HUCK
****
This file was generated by PARSER (from files_GN.cpp)

@<TRIPOS>ATOM
      1 C1        -22.4133   90.8652   79.9785 C.3         1 INH      -0.0094
      2 C2        -21.9239   90.7849   81.4470 C.3         1 INH       0.0293
      3 C3        -22.8452   91.5042   82.3626 C.2         1 INH       0.0842
      4 O4        -24.1720   91.2406   82.3238 O.co2       1 INH      -0.5643
      5 O5        -22.3918   92.1825   83.4359 O.co2       1 INH      -0.5643
      6 N6        -20.4584   91.0758   81.5394 N.4         1 INH       0.2597
      7 C7        -19.8746   92.4379   81.7067 C.3         1 INH       0.0701
      8 C8        -18.3149   92.3237   81.6872 C.3         1 INH       0.0177
      9 C9        -17.5556   93.6332   82.0864 C.3         1 INH      -0.0119
     10 C10       -16.6793   93.4748   83.2823 C.ar        1 INH      -0.0427
     11 C11       -17.0533   93.9845   84.5504 C.ar        1 INH      -0.0603
     12 C12       -16.2154   93.8134   85.6687 C.ar        1 INH      -0.0686
     13 C13       -14.9908   93.1347   85.5352 C.ar        1 INH      -0.0687
     14 C14       -14.6111   92.6152   84.2849 C.ar        1 INH      -0.0686
     15 C15       -15.4478   92.7869   83.1672 C.ar        1 INH      -0.0603
     16 C16       -20.4071   93.4263   80.7683 C.2         1 INH       0.2270
     17 O17       -21.1757   94.2703   81.2219 O.2         1 INH      -0.3907
     18 N18       -20.0644   93.4517   79.4802 N.am        1 INH      -0.2605
     19 C19       -20.4670   94.4101   78.4750 C.3         1 INH       0.1369
     20 C20       -21.8624   94.0285   77.8792 C.3         1 INH      -0.0087
     21 C21       -22.4973   95.0179   76.8580 C.3         1 INH      -0.0156
     22 C22       -22.0347   94.8361   75.3899 C.3         1 INH       0.0627
     23 N23       -22.8090   95.6362   74.5461 N.pl3       1 INH      -0.2723
     24 C24       -22.7870   95.6497   73.2635 C.cat       1 INH       0.2882
     25 N25       -22.0173   94.9319   72.5374 N.pl3       1 INH      -0.2849
     26 N26       -23.6055   96.4223   72.6652 N.pl3       1 INH      -0.2849
     27 C27       -20.3099   95.7803   78.9713 C.2         1 INH       0.2292
     28 O28       -19.1908   96.2731   78.9277 O.2         1 INH      -0.3823
     29 N29       -21.3405   96.4361   79.5034 N.am        1 INH      -0.2320
     30 C30       -21.4085   97.6659   80.0922 C.ar        1 INH       0.0663
     31 C31       -22.6537   98.3333   80.0206 C.ar        1 INH      -0.0413
     32 C32       -22.8359   99.5900   80.6262 C.ar        1 INH      -0.0755
     33 C33       -21.7764  100.1916   81.3269 C.ar        1 INH      -0.0772
     34 C34       -20.5357   99.5377   81.4175 C.ar        1 INH      -0.0755
     35 C35       -20.3554   98.2777   80.8161 C.ar        1 INH      -0.0413
     36 H1        -23.3687   90.3476   79.8647 H           1 INH       0.0303
     37 H2        -21.6920   90.3876   79.3092 H           1 INH       0.0303
     38 H3        -22.5476   91.8982   79.6738 H           1 INH       0.0303
     39 H4        -22.0098   89.7318   81.7281 H           1 INH       0.1023
     40 H5        -20.0300   90.6705   80.7092 H           1 INH       0.2052
     41 H6        -20.1190   90.5241   82.3316 H           1 INH       0.2052
     42 H7        -20.1146   92.7461   82.7286 H           1 INH       0.1101
     43 H8        -17.9813   91.9958   80.6970 H           1 INH       0.0368
     44 H9        -18.0368   91.5184   82.3740 H           1 INH       0.0368
     45 H10       -18.2753   94.4365   82.2590 H           1 INH       0.0429
     46 H11       -16.9348   93.9654   81.2481 H           1 INH       0.0429
     47 H12       -17.9414   94.4778   84.6710 H           1 INH       0.0557
     48 H13       -16.4962   94.1841   86.5801 H           1 INH       0.0599
     49 H14       -14.3787   93.0172   86.3442 H           1 INH       0.0559
     50 H15       -13.7224   92.1193   84.1864 H           1 INH       0.0599
     51 H16       -15.1547   92.4018   82.2651 H           1 INH       0.0557
     52 H17       -19.4565   92.7590   79.1820 H           1 INH       0.1885
     53 H18       -19.7594   94.2865   77.6492 H           1 INH       0.0805
     54 H19       -22.5714   93.9049   78.7006 H           1 INH       0.0314
     55 H20       -21.7725   93.0549   77.3921 H           1 INH       0.0314
     56 H21       -22.3023   96.0492   77.1551 H           1 INH       0.0301
     57 H22       -23.5821   94.8691   76.8899 H           1 INH       0.0301
     58 H23       -22.1480   93.7869   75.0982 H           1 INH       0.0689
     59 H24       -20.9828   95.1204   75.2985 H           1 INH       0.0689
     60 H25       -23.4302   96.2057   74.9571 H           1 INH       0.2642
     61 H26       -22.0742   94.9919   71.6060 H           1 INH       0.2615
     62 H27       -21.4042   94.3431   72.9271 H           1 INH       0.2615
     63 H28       -24.1976   96.9544   73.1575 H           1 INH       0.2615
     64 H29       -23.6237   96.4481   71.7308 H           1 INH       0.2615
     65 H30       -22.1942   95.9807   79.4376 H           1 INH       0.2257
     66 H31       -23.4393   97.9091   79.5184 H           1 INH       0.0502
     67 H32       -23.7395  100.0644   80.5563 H           1 INH       0.0577
     68 H33       -21.9115  101.0994   81.7763 H           1 INH       0.0487
     69 H34       -19.7687   99.9705   81.9340 H           1 INH       0.0577
     70 H35       -19.4617   97.8024   80.9432 H           1 INH       0.0502
@<TRIPOS>BOND
     1     1     2   1
     2     2     6   1
     3     2     3   1
     4     3     5  ar
     5     3     4  ar
     6     6     7   1
     7     7    16   1
     8     7     8   1
     9     8     9   1
    10     9    10   1
    11    10    15  ar
    12    10    11  ar
    13    11    12  ar
    14    12    13  ar
    15    13    14  ar
    16    14    15  ar
    17    16    18  am
    18    16    17   2
    19    18    19   1
    20    19    27   1
    21    19    20   1
    22    20    21   1
    23    21    22   1
    24    22    23   1
    25    23    24  ar
    26    24    26  ar
    27    24    25  ar
    28    27    29  am
    29    27    28   2
    30    29    30   1
    31    30    35  ar
    32    30    31  ar
    33    31    32  ar
    34    32    33  ar
    35    33    34  ar
    36    34    35  ar
    37     1    36   1
    38     1    37   1
    39     1    38   1
    40     2    39   1
    41     6    40   1
    42     6    41   1
    43     7    42   1
    44     8    43   1
    45     8    44   1
    46     9    45   1
    47     9    46   1
    48    11    47   1
    49    12    48   1
    50    13    49   1
    51    14    50   1
    52    15    51   1
    53    18    52   1
    54    19    53   1
    55    20    54   1
    56    20    55   1
    57    21    56   1
    58    21    57   1
    59    22    58   1
    60    22    59   1
    61    23    60   1
    62    25    61   1
    63    25    62   1
    64    26    63   1
    65    26    64   1
    66    29    65   1
    67    31    66   1
    68    32    67   1
    69    33    68   1
    70    34    69   1
    71    35    70   1
@<TRIPOS>SUBSTRUCTURE
     1  INH      1

