@<TRIPOS>MOLECULE
1sln_ligand_014
    70    71
SMALL
GAST_HUCK
****
This file was generated by PARSER (from files_GN.cpp)

@<TRIPOS>ATOM
      1 C1        -21.0932   96.1691   78.8765 C.3         1 INH      -0.0094
      2 C2        -20.4650   95.3914   80.0618 C.3         1 INH       0.0293
      3 C3        -21.3692   95.4402   81.2361 C.2         1 INH       0.0842
      4 O4        -22.0070   94.3241   81.6600 O.co2       1 INH      -0.5643
      5 O5        -21.6097   96.6138   81.8748 O.co2       1 INH      -0.5643
      6 N6        -19.1345   95.9591   80.4441 N.4         1 INH       0.2597
      7 C7        -17.8916   95.2785   79.9678 C.3         1 INH       0.0701
      8 C8        -16.6690   96.1538   80.3857 C.3         1 INH       0.0177
      9 C9        -15.2664   95.5182   80.1223 C.3         1 INH      -0.0119
     10 C10       -14.0363   96.3653   80.2230 C.ar        1 INH      -0.0427
     11 C11       -12.7789   95.7321   80.0483 C.ar        1 INH      -0.0603
     12 C12       -11.5797   96.4705   80.0698 C.ar        1 INH      -0.0686
     13 C13       -11.6173   97.8620   80.2664 C.ar        1 INH      -0.0687
     14 C14       -12.8502   98.5063   80.4693 C.ar        1 INH      -0.0686
     15 C15       -14.0473   97.7635   80.4591 C.ar        1 INH      -0.0603
     16 C16       -17.7947   93.8971   80.4493 C.2         1 INH       0.2270
     17 O17       -17.4948   93.0171   79.6464 O.2         1 INH      -0.3907
     18 N18       -18.1340   93.6035   81.7004 N.am        1 INH      -0.2605
     19 C19       -18.2408   92.2936   82.2894 C.3         1 INH       0.1369
     20 C20       -17.3577   92.2035   83.5757 C.3         1 INH      -0.0087
     21 C21       -17.4450   93.4072   84.5700 C.3         1 INH      -0.0156
     22 C22       -16.3293   94.4879   84.4199 C.3         1 INH       0.0627
     23 N23       -15.2926   94.3208   85.3474 N.pl3       1 INH      -0.2723
     24 C24       -15.3484   94.5173   86.6141 C.cat       1 INH       0.2882
     25 N25       -14.3019   94.2615   87.3013 N.pl3       1 INH      -0.2849
     26 N26       -16.3827   94.9460   87.2383 N.pl3       1 INH      -0.2849
     27 C27       -19.6610   91.9938   82.5053 C.2         1 INH       0.2292
     28 O28       -20.2735   92.5734   83.4001 O.2         1 INH      -0.3823
     29 N29       -20.3085   91.2042   81.6476 N.am        1 INH      -0.2320
     30 C30       -21.6158   90.8022   81.6639 C.ar        1 INH       0.0663
     31 C31       -22.2546   90.5970   80.4195 C.ar        1 INH      -0.0413
     32 C32       -23.5936   90.1659   80.3565 C.ar        1 INH      -0.0755
     33 C33       -24.3073   89.9115   81.5403 C.ar        1 INH      -0.0772
     34 C34       -23.6809   90.0912   82.7869 C.ar        1 INH      -0.0755
     35 C35       -22.3464   90.5316   82.8473 C.ar        1 INH      -0.0413
     36 H1        -22.0609   95.7317   78.6134 H           1 INH       0.0303
     37 H2        -20.4351   96.1109   78.0075 H           1 INH       0.0303
     38 H3        -21.2433   97.2217   79.1372 H           1 INH       0.0303
     39 H4        -20.3661   94.3398   79.7544 H           1 INH       0.1023
     40 H5        -19.0796   96.0022   81.4708 H           1 INH       0.2052
     41 H6        -19.1091   96.9242   80.0979 H           1 INH       0.2052
     42 H7        -17.9216   95.2796   78.8736 H           1 INH       0.1101
     43 H8        -16.7480   96.3909   81.4505 H           1 INH       0.0368
     44 H9        -16.7386   97.0915   79.8252 H           1 INH       0.0368
     45 H10       -15.2755   95.0875   79.1132 H           1 INH       0.0429
     46 H11       -15.1423   94.6956   80.8367 H           1 INH       0.0429
     47 H12       -12.7236   94.7225   79.8943 H           1 INH       0.0557
     48 H13       -10.6824   96.0008   79.9327 H           1 INH       0.0599
     49 H14       -10.7483   98.4045   80.2652 H           1 INH       0.0559
     50 H15       -12.8777   99.5191   80.6185 H           1 INH       0.0599
     51 H16       -14.9221   98.2638   80.6167 H           1 INH       0.0557
     52 H17       -18.4042   94.3489   82.2699 H           1 INH       0.1885
     53 H18       -17.8379   91.5312   81.6053 H           1 INH       0.0805
     54 H19       -16.3140   92.0758   83.2729 H           1 INH       0.0314
     55 H20       -17.6283   91.2857   84.1070 H           1 INH       0.0314
     56 H21       -17.4046   93.0023   85.5798 H           1 INH       0.0301
     57 H22       -18.4142   93.9002   84.4850 H           1 INH       0.0301
     58 H23       -16.7615   95.4889   84.5266 H           1 INH       0.0689
     59 H24       -15.8968   94.4409   83.4171 H           1 INH       0.0689
     60 H25       -14.4763   94.0162   85.0082 H           1 INH       0.2642
     61 H26       -14.3056   94.3902   88.2266 H           1 INH       0.2615
     62 H27       -13.5295   93.9491   86.8774 H           1 INH       0.2615
     63 H28       -17.1618   95.1687   86.7745 H           1 INH       0.2615
     64 H29       -16.3724   95.0206   88.1685 H           1 INH       0.2615
     65 H30       -19.7989   90.8814   80.8842 H           1 INH       0.2257
     66 H31       -21.7503   90.7663   79.5452 H           1 INH       0.0502
     67 H32       -24.0457   90.0180   79.4488 H           1 INH       0.0577
     68 H33       -25.2802   89.5915   81.4995 H           1 INH       0.0487
     69 H34       -24.1874   89.8815   83.6521 H           1 INH       0.0577
     70 H35       -21.8986   90.6188   83.7589 H           1 INH       0.0502
@<TRIPOS>BOND
     1     1     2   1
     2     2     6   1
     3     2     3   1
     4     3     5  ar
     5     3     4  ar
     6     6     7   1
     7     7    16   1
     8     7     8   1
     9     8     9   1
    10     9    10   1
    11    10    15  ar
    12    10    11  ar
    13    11    12  ar
    14    12    13  ar
    15    13    14  ar
    16    14    15  ar
    17    16    18  am
    18    16    17   2
    19    18    19   1
    20    19    27   1
    21    19    20   1
    22    20    21   1
    23    21    22   1
    24    22    23   1
    25    23    24  ar
    26    24    26  ar
    27    24    25  ar
    28    27    29  am
    29    27    28   2
    30    29    30   1
    31    30    35  ar
    32    30    31  ar
    33    31    32  ar
    34    32    33  ar
    35    33    34  ar
    36    34    35  ar
    37     1    36   1
    38     1    37   1
    39     1    38   1
    40     2    39   1
    41     6    40   1
    42     6    41   1
    43     7    42   1
    44     8    43   1
    45     8    44   1
    46     9    45   1
    47     9    46   1
    48    11    47   1
    49    12    48   1
    50    13    49   1
    51    14    50   1
    52    15    51   1
    53    18    52   1
    54    19    53   1
    55    20    54   1
    56    20    55   1
    57    21    56   1
    58    21    57   1
    59    22    58   1
    60    22    59   1
    61    23    60   1
    62    25    61   1
    63    25    62   1
    64    26    63   1
    65    26    64   1
    66    29    65   1
    67    31    66   1
    68    32    67   1
    69    33    68   1
    70    34    69   1
    71    35    70   1
@<TRIPOS>SUBSTRUCTURE
     1  INH      1

