@<TRIPOS>MOLECULE
1sqa_ligand_013
    54    57
SMALL
GAST_HUCK
****
This file was generated by PARSER (from files_GN.cpp)

@<TRIPOS>ATOM
      1 N1         18.6858   20.3106   35.2845 N.4         1 UI1       0.2289
      2 C2         18.6054   19.5749   34.0184 C.3         1 UI1      -0.0082
      3 C3         19.7309   18.6168   33.9196 C.ar        1 UI1      -0.0133
      4 C4         21.0337   19.1133   33.7010 C.ar        1 UI1      -0.0682
      5 C5         22.1315   18.2401   33.6084 C.ar        1 UI1      -0.0471
      6 C6         21.9465   16.8430   33.7337 C.ar        1 UI1       0.0594
      7 N7         22.9826   15.9565   33.6721 N.am        1 UI1      -0.2371
      8 C8         24.0843   15.9950   32.9201 C.2         1 UI1       0.2269
      9 O9         24.1739   16.8441   32.0384 O.2         1 UI1      -0.3740
     10 C10        25.1073   15.0418   33.0466 C.ar        1 UI1       0.0420
     11 C11        24.9271   13.8517   33.7878 C.ar        1 UI1      -0.0212
     12 C12        25.9105   12.8419   33.8790 C.ar        1 UI1       0.0814
     13 N13        25.6264   11.6911   34.5688 N.pl3       1 UI1      -0.2366
     14 C14        24.4826   10.9661   34.4893 C.ar        1 UI1       0.2162
     15 N15        24.3361    9.8842   35.2992 N.ar        1 UI1      -0.2483
     16 C16        23.2065    9.1263   35.2743 C.ar        1 UI1       0.0160
     17 C17        22.1459    9.4594   34.4112 C.ar        1 UI1      -0.0217
     18 C18        22.3234   10.5589   33.5593 C.ar        1 UI1       0.0160
     19 N19        23.4730   11.2720   33.6239 N.ar        1 UI1      -0.2483
     20 C20        27.1837   13.0685   33.2837 C.ar        1 UI1       0.0152
     21 C21        28.2367   12.1230   33.3710 C.ar        1 UI1      -0.0470
     22 C22        29.5141   12.3399   32.7872 C.ar        1 UI1       0.0254
     23 C23        29.6962   13.5523   32.0750 C.ar        1 UI1      -0.0575
     24 C24        28.6651   14.4971   31.9525 C.ar        1 UI1      -0.0567
     25 C25        27.4075   14.2727   32.5587 C.ar        1 UI1      -0.0208
     26 C26        26.3715   15.2249   32.4324 C.ar        1 UI1      -0.0476
     27 C27        30.5580   11.4023   32.9133 C.cat       1 UI1       0.2346
     28 N28        30.3874   10.2308   33.3953 N.pl3       1 UI1      -0.2724
     29 N29        31.7605   11.6507   32.5557 N.pl3       1 UI1      -0.2724
     30 C30        20.6533   16.3527   33.9992 C.ar        1 UI1      -0.0471
     31 C31        19.5514   17.2232   34.0749 C.ar        1 UI1      -0.0682
     32 H1         17.9416   21.0090   35.3203 H           1 UI1       0.2005
     33 H2         19.5922   20.7770   35.3711 H           1 UI1       0.2005
     34 H3         18.5598   19.6552   36.0587 H           1 UI1       0.2005
     35 H4         18.6481   20.2862   33.1898 H           1 UI1       0.0950
     36 H5         17.6395   19.0673   33.9726 H           1 UI1       0.0950
     37 H6         21.1852   20.1198   33.6021 H           1 UI1       0.0522
     38 H7         23.0638   18.6365   33.4780 H           1 UI1       0.0488
     39 H8         22.8814   15.1783   34.2431 H           1 UI1       0.2231
     40 H9         24.0433   13.6955   34.2726 H           1 UI1       0.0523
     41 H10        26.3233   11.3360   35.1399 H           1 UI1       0.2211
     42 H11        23.1187    8.3195   35.8960 H           1 UI1       0.0903
     43 H12        21.2773    8.9244   34.4052 H           1 UI1       0.0673
     44 H13        21.5957   10.8269   32.8965 H           1 UI1       0.0903
     45 H14        28.0741   11.2608   33.8896 H           1 UI1       0.0632
     46 H15        30.5875   13.7648   31.6219 H           1 UI1       0.0617
     47 H16        28.8454   15.3519   31.4214 H           1 UI1       0.0609
     48 H17        26.5483   16.0783   31.8964 H           1 UI1       0.0557
     49 H18        31.1112    9.6413   33.4611 H           1 UI1       0.3181
     50 H19        29.5442    9.9498   33.6804 H           1 UI1       0.3181
     51 H20        31.9902   12.4822   32.1964 H           1 UI1       0.3181
     52 H21        32.4247   10.9989   32.6574 H           1 UI1       0.3181
     53 H22        20.5042   15.3457   34.1242 H           1 UI1       0.0488
     54 H23        18.6242   16.8301   34.2732 H           1 UI1       0.0522
@<TRIPOS>BOND
     1     1     2   1
     2     2     3   1
     3     3     4  ar
     4     3    31  ar
     5     4     5  ar
     6     5     6  ar
     7     6     7   1
     8     6    30  ar
     9     7     8  am
    10     8     9   2
    11     8    10   1
    12    10    11  ar
    13    10    26  ar
    14    11    12  ar
    15    12    13   1
    16    12    20  ar
    17    13    14   1
    18    14    15  ar
    19    14    19  ar
    20    15    16  ar
    21    16    17  ar
    22    17    18  ar
    23    18    19  ar
    24    20    21  ar
    25    20    25  ar
    26    21    22  ar
    27    22    23  ar
    28    22    27   1
    29    23    24  ar
    30    24    25  ar
    31    25    26  ar
    32    27    28  ar
    33    27    29  ar
    34    30    31  ar
    35     1    32   1
    36     1    33   1
    37     1    34   1
    38     2    35   1
    39     2    36   1
    40     4    37   1
    41     5    38   1
    42     7    39   1
    43    11    40   1
    44    13    41   1
    45    16    42   1
    46    17    43   1
    47    18    44   1
    48    21    45   1
    49    23    46   1
    50    24    47   1
    51    26    48   1
    52    28    49   1
    53    28    50   1
    54    29    51   1
    55    29    52   1
    56    30    53   1
    57    31    54   1
@<TRIPOS>SUBSTRUCTURE
     1  UI1      2

