@<TRIPOS>MOLECULE
1sqa_ligand_030
    54    57
SMALL
GAST_HUCK
****
This file was generated by PARSER (from files_GN.cpp)

@<TRIPOS>ATOM
      1 N1         31.1538   14.2291   33.6830 N.4         1 UI1       0.2289
      2 C2         30.1685   13.2178   33.2866 C.3         1 UI1      -0.0082
      3 C3         28.8044   13.7936   33.3462 C.ar        1 UI1      -0.0133
      4 C4         28.1489   13.9523   34.5895 C.ar        1 UI1      -0.0682
      5 C5         26.8798   14.5553   34.6547 C.ar        1 UI1      -0.0471
      6 C6         26.2573   15.0346   33.4817 C.ar        1 UI1       0.0594
      7 N7         25.0612   15.6816   33.5147 N.am        1 UI1      -0.2371
      8 C8         23.9258   15.2144   34.0200 C.2         1 UI1       0.2269
      9 O9         23.8755   14.0559   34.4240 O.2         1 UI1      -0.3740
     10 C10        22.7733   16.0012   34.0076 C.ar        1 UI1       0.0420
     11 C11        21.4956   15.3963   34.0202 C.ar        1 UI1      -0.0212
     12 C12        20.3204   16.1686   34.0837 C.ar        1 UI1       0.0814
     13 N13        19.1285   15.5484   34.2412 N.pl3       1 UI1      -0.2366
     14 C14        18.5063   14.7787   33.3373 C.ar        1 UI1       0.2162
     15 N15        17.3039   14.2834   33.7164 N.ar        1 UI1      -0.2483
     16 C16        16.5655   13.5092   32.8911 C.ar        1 UI1       0.0160
     17 C17        17.0391   13.2177   31.5983 C.ar        1 UI1      -0.0217
     18 C18        18.2641   13.7871   31.2016 C.ar        1 UI1       0.0160
     19 N19        18.9717   14.5418   32.0812 N.ar        1 UI1      -0.2483
     20 C20        20.3910   17.5795   34.1044 C.ar        1 UI1       0.0152
     21 C21        19.2252   18.3815   34.1249 C.ar        1 UI1      -0.0470
     22 C22        19.2748   19.7935   34.0422 C.ar        1 UI1       0.0254
     23 C23        20.5611   20.3887   34.0078 C.ar        1 UI1      -0.0575
     24 C24        21.7355   19.6132   34.0412 C.ar        1 UI1      -0.0567
     25 C25        21.6630   18.2060   34.0560 C.ar        1 UI1      -0.0208
     26 C26        22.8362   17.4180   34.0240 C.ar        1 UI1      -0.0476
     27 C27        18.0939   20.5529   33.9797 C.cat       1 UI1       0.2346
     28 N28        16.9434   20.0632   34.2418 N.pl3       1 UI1      -0.2724
     29 N29        18.0872   21.7856   33.6420 N.pl3       1 UI1      -0.2724
     30 C30        26.9134   14.8933   32.2444 C.ar        1 UI1      -0.0471
     31 C31        28.1669   14.2600   32.1725 C.ar        1 UI1      -0.0682
     32 H1         32.0930   13.8346   33.6148 H           1 UI1       0.2005
     33 H2         30.9813   14.5268   34.6452 H           1 UI1       0.2005
     34 H3         31.0830   15.0381   33.0621 H           1 UI1       0.2005
     35 H4         30.2475   12.3578   33.9549 H           1 UI1       0.0950
     36 H5         30.4143   12.8789   32.2768 H           1 UI1       0.0950
     37 H6         28.5982   13.6339   35.4533 H           1 UI1       0.0522
     38 H7         26.4266   14.6709   35.5653 H           1 UI1       0.0488
     39 H8         25.0134   16.5259   33.0362 H           1 UI1       0.2231
     40 H9         21.4091   14.3748   34.0160 H           1 UI1       0.0523
     41 H10        18.5909   15.8123   35.0027 H           1 UI1       0.2211
     42 H11        15.6731   13.1381   33.2232 H           1 UI1       0.0903
     43 H12        16.5024   12.6178   30.9691 H           1 UI1       0.0673
     44 H13        18.6330   13.6215   30.2625 H           1 UI1       0.0903
     45 H14        18.3159   17.9190   34.1446 H           1 UI1       0.0632
     46 H15        20.6619   21.4068   33.9700 H           1 UI1       0.0617
     47 H16        22.6445   20.0864   34.0333 H           1 UI1       0.0609
     48 H17        23.7488   17.8868   34.0353 H           1 UI1       0.0557
     49 H18        16.1805   20.6021   34.2105 H           1 UI1       0.3181
     50 H19        16.8559   19.1704   34.5035 H           1 UI1       0.3181
     51 H20        18.8829   22.2235   33.4186 H           1 UI1       0.3181
     52 H21        17.2782   22.2541   33.5993 H           1 UI1       0.3181
     53 H22        26.4724   15.2375   31.3872 H           1 UI1       0.0488
     54 H23        28.6186   14.1631   31.2605 H           1 UI1       0.0522
@<TRIPOS>BOND
     1     1     2   1
     2     2     3   1
     3     3     4  ar
     4     3    31  ar
     5     4     5  ar
     6     5     6  ar
     7     6     7   1
     8     6    30  ar
     9     7     8  am
    10     8     9   2
    11     8    10   1
    12    10    11  ar
    13    10    26  ar
    14    11    12  ar
    15    12    13   1
    16    12    20  ar
    17    13    14   1
    18    14    15  ar
    19    14    19  ar
    20    15    16  ar
    21    16    17  ar
    22    17    18  ar
    23    18    19  ar
    24    20    21  ar
    25    20    25  ar
    26    21    22  ar
    27    22    23  ar
    28    22    27   1
    29    23    24  ar
    30    24    25  ar
    31    25    26  ar
    32    27    28  ar
    33    27    29  ar
    34    30    31  ar
    35     1    32   1
    36     1    33   1
    37     1    34   1
    38     2    35   1
    39     2    36   1
    40     4    37   1
    41     5    38   1
    42     7    39   1
    43    11    40   1
    44    13    41   1
    45    16    42   1
    46    17    43   1
    47    18    44   1
    48    21    45   1
    49    23    46   1
    50    24    47   1
    51    26    48   1
    52    28    49   1
    53    28    50   1
    54    29    51   1
    55    29    52   1
    56    30    53   1
    57    31    54   1
@<TRIPOS>SUBSTRUCTURE
     1  UI1      2

