@<TRIPOS>MOLECULE
1sqa_ligand_023
    54    57
SMALL
GAST_HUCK
****
This file was generated by PARSER (from files_GN.cpp)

@<TRIPOS>ATOM
      1 N1         32.1270   15.0097   25.7039 N.4         1 UI1       0.2289
      2 C2         30.8296   14.4104   25.3701 C.3         1 UI1      -0.0082
      3 C3         29.7776   14.8576   26.3170 C.ar        1 UI1      -0.0133
      4 C4         29.2300   13.9719   27.2717 C.ar        1 UI1      -0.0682
      5 C5         28.2322   14.4033   28.1618 C.ar        1 UI1      -0.0471
      6 C6         27.7709   15.7353   28.1425 C.ar        1 UI1       0.0594
      7 N7         26.7848   16.0596   29.0347 N.am        1 UI1      -0.2371
      8 C8         26.5122   17.2268   29.6110 C.2         1 UI1       0.2269
      9 O9         27.2526   18.1830   29.4072 O.2         1 UI1      -0.3740
     10 C10        25.4431   17.3537   30.5153 C.ar        1 UI1       0.0420
     11 C11        25.4710   18.3364   31.5354 C.ar        1 UI1      -0.0212
     12 C12        24.4025   18.5066   32.4387 C.ar        1 UI1       0.0814
     13 N13        24.4874   19.5420   33.3160 N.pl3       1 UI1      -0.2366
     14 C14        24.9672   19.4763   34.5769 C.ar        1 UI1       0.2162
     15 N15        24.9277   20.6132   35.3211 N.ar        1 UI1      -0.2483
     16 C16        25.3575   20.6472   36.6078 C.ar        1 UI1       0.0160
     17 C17        25.8723   19.4827   37.2017 C.ar        1 UI1      -0.0217
     18 C18        25.9154   18.3144   36.4204 C.ar        1 UI1       0.0160
     19 N19        25.4627   18.3386   35.1395 N.ar        1 UI1      -0.2483
     20 C20        23.2402   17.6997   32.3294 C.ar        1 UI1       0.0152
     21 C21        22.1221   17.8593   33.1877 C.ar        1 UI1      -0.0470
     22 C22        20.9521   17.0607   33.0787 C.ar        1 UI1       0.0254
     23 C23        20.9418   16.0790   32.0537 C.ar        1 UI1      -0.0575
     24 C24        22.0367   15.9001   31.1904 C.ar        1 UI1      -0.0567
     25 C25        23.1893   16.7051   31.3157 C.ar        1 UI1      -0.0208
     26 C26        24.2789   16.5457   30.4281 C.ar        1 UI1      -0.0476
     27 C27        19.8487   17.2336   33.9413 C.cat       1 UI1       0.2346
     28 N28        18.8738   16.4094   33.9834 N.pl3       1 UI1      -0.2724
     29 N29        19.7379   18.2244   34.7424 N.pl3       1 UI1      -0.2724
     30 C30        28.3008   16.6202   27.1726 C.ar        1 UI1      -0.0471
     31 C31        29.2956   16.1861   26.2739 C.ar        1 UI1      -0.0682
     32 H1         32.8394   14.6677   25.0543 H           1 UI1       0.2005
     33 H2         32.3918   14.7495   26.6575 H           1 UI1       0.2005
     34 H3         32.0646   16.0263   25.6328 H           1 UI1       0.2005
     35 H4         30.9483   13.3242   25.3886 H           1 UI1       0.0950
     36 H5         30.5555   14.6946   24.3534 H           1 UI1       0.0950
     37 H6         29.5620   13.0065   27.3346 H           1 UI1       0.0522
     38 H7         27.8545   13.7367   28.8416 H           1 UI1       0.0488
     39 H8         26.2727   15.3070   29.3658 H           1 UI1       0.2231
     40 H9         26.2834   18.9540   31.6269 H           1 UI1       0.0523
     41 H10        24.1179   20.3853   33.0197 H           1 UI1       0.2211
     42 H11        25.3006   21.5182   37.1385 H           1 UI1       0.0903
     43 H12        26.1976   19.4843   38.1711 H           1 UI1       0.0673
     44 H13        26.2816   17.4455   36.8121 H           1 UI1       0.0903
     45 H14        22.1670   18.5753   33.9150 H           1 UI1       0.0632
     46 H15        20.1245   15.4828   31.9055 H           1 UI1       0.0617
     47 H16        21.9797   15.1749   30.4690 H           1 UI1       0.0609
     48 H17        24.1959   15.8533   29.6788 H           1 UI1       0.0557
     49 H18        18.1565   16.5570   34.5655 H           1 UI1       0.3181
     50 H19        18.8669   15.6505   33.4385 H           1 UI1       0.3181
     51 H20        20.3965   18.8865   34.7769 H           1 UI1       0.3181
     52 H21        18.9873   18.3018   35.3004 H           1 UI1       0.3181
     53 H22        27.9425   17.5735   27.0862 H           1 UI1       0.0488
     54 H23        29.6562   16.8410   25.5750 H           1 UI1       0.0522
@<TRIPOS>BOND
     1     1     2   1
     2     2     3   1
     3     3     4  ar
     4     3    31  ar
     5     4     5  ar
     6     5     6  ar
     7     6     7   1
     8     6    30  ar
     9     7     8  am
    10     8     9   2
    11     8    10   1
    12    10    11  ar
    13    10    26  ar
    14    11    12  ar
    15    12    13   1
    16    12    20  ar
    17    13    14   1
    18    14    15  ar
    19    14    19  ar
    20    15    16  ar
    21    16    17  ar
    22    17    18  ar
    23    18    19  ar
    24    20    21  ar
    25    20    25  ar
    26    21    22  ar
    27    22    23  ar
    28    22    27   1
    29    23    24  ar
    30    24    25  ar
    31    25    26  ar
    32    27    28  ar
    33    27    29  ar
    34    30    31  ar
    35     1    32   1
    36     1    33   1
    37     1    34   1
    38     2    35   1
    39     2    36   1
    40     4    37   1
    41     5    38   1
    42     7    39   1
    43    11    40   1
    44    13    41   1
    45    16    42   1
    46    17    43   1
    47    18    44   1
    48    21    45   1
    49    23    46   1
    50    24    47   1
    51    26    48   1
    52    28    49   1
    53    28    50   1
    54    29    51   1
    55    29    52   1
    56    30    53   1
    57    31    54   1
@<TRIPOS>SUBSTRUCTURE
     1  UI1      2

