@<TRIPOS>MOLECULE
1sqa_ligand_019
    54    57
SMALL
GAST_HUCK
****
This file was generated by PARSER (from files_GN.cpp)

@<TRIPOS>ATOM
      1 N1         17.1622   19.6287   34.1244 N.4         1 UI1       0.2289
      2 C2         17.5612   19.5841   32.7121 C.3         1 UI1      -0.0082
      3 C3         18.7432   18.7061   32.5137 C.ar        1 UI1      -0.0133
      4 C4         20.0056   19.0897   33.0258 C.ar        1 UI1      -0.0682
      5 C5         21.1432   18.2887   32.8112 C.ar        1 UI1      -0.0471
      6 C6         21.0343   17.0642   32.1190 C.ar        1 UI1       0.0594
      7 N7         22.1446   16.3078   31.9156 N.am        1 UI1      -0.2371
      8 C8         22.4022   15.1379   32.4883 C.2         1 UI1       0.2269
      9 O9         21.6427   14.6574   33.3227 O.2         1 UI1      -0.3740
     10 C10        23.6309   14.5331   32.2644 C.ar        1 UI1       0.0420
     11 C11        24.0959   14.2903   30.9532 C.ar        1 UI1      -0.0212
     12 C12        25.3497   13.6819   30.7092 C.ar        1 UI1       0.0814
     13 N13        25.6293   13.4013   29.3990 N.pl3       1 UI1      -0.2366
     14 C14        26.2589   12.3140   28.8883 C.ar        1 UI1       0.2162
     15 N15        26.5195   12.3205   27.5570 N.ar        1 UI1      -0.2483
     16 C16        27.1862   11.3025   26.9473 C.ar        1 UI1       0.0160
     17 C17        27.6427   10.2074   27.7077 C.ar        1 UI1      -0.0217
     18 C18        27.3352   10.1968   29.0825 C.ar        1 UI1       0.0160
     19 N19        26.6520   11.2413   29.6321 N.ar        1 UI1      -0.2483
     20 C20        26.2198   13.4325   31.8067 C.ar        1 UI1       0.0152
     21 C21        27.5667   13.0203   31.6413 C.ar        1 UI1      -0.0470
     22 C22        28.3918   12.6314   32.7278 C.ar        1 UI1       0.0254
     23 C23        27.8513   12.7735   34.0316 C.ar        1 UI1      -0.0575
     24 C24        26.5552   13.2766   34.2307 C.ar        1 UI1      -0.0567
     25 C25        25.7373   13.6153   33.1346 C.ar        1 UI1      -0.0208
     26 C26        24.4443   14.1425   33.3463 C.ar        1 UI1      -0.0476
     27 C27        29.6688   12.0769   32.5131 C.cat       1 UI1       0.2346
     28 N28        30.1045   11.7669   31.3531 N.pl3       1 UI1      -0.2724
     29 N29        30.4746   11.8125   33.4680 N.pl3       1 UI1      -0.2724
     30 C30        19.7774   16.6730   31.6083 C.ar        1 UI1      -0.0471
     31 C31        18.6470   17.4903   31.7942 C.ar        1 UI1      -0.0682
     32 H1         16.3887   20.2882   34.2545 H           1 UI1       0.2005
     33 H2         17.9531   19.9251   34.6991 H           1 UI1       0.2005
     34 H3         16.8596   18.6979   34.4178 H           1 UI1       0.2005
     35 H4         17.8041   20.5938   32.3779 H           1 UI1       0.0950
     36 H5         16.7018   19.2378   32.1349 H           1 UI1       0.0950
     37 H6         20.1092   19.9669   33.5389 H           1 UI1       0.0522
     38 H7         22.0479   18.5917   33.1801 H           1 UI1       0.0488
     39 H8         22.8695   16.7202   31.4147 H           1 UI1       0.2231
     40 H9         23.4830   14.5165   30.1588 H           1 UI1       0.0523
     41 H10        25.2578   14.0082   28.7416 H           1 UI1       0.2211
     42 H11        27.3448   11.3385   25.9395 H           1 UI1       0.0903
     43 H12        28.1475    9.4346   27.2656 H           1 UI1       0.0673
     44 H13        27.6207    9.4060   29.6621 H           1 UI1       0.0903
     45 H14        27.9535   13.0063   30.7017 H           1 UI1       0.0632
     46 H15        28.3883   12.5039   34.8574 H           1 UI1       0.0617
     47 H16        26.2129   13.3804   35.1924 H           1 UI1       0.0609
     48 H17        24.1154   14.2957   34.3084 H           1 UI1       0.0557
     49 H18        30.9514   11.3797   31.2564 H           1 UI1       0.3181
     50 H19        29.5833   11.9131   30.5910 H           1 UI1       0.3181
     51 H20        30.2443   12.0034   34.3547 H           1 UI1       0.3181
     52 H21        31.3072   11.4212   33.2863 H           1 UI1       0.3181
     53 H22        19.6888   15.8020   31.0752 H           1 UI1       0.0488
     54 H23        17.7538   17.1943   31.3937 H           1 UI1       0.0522
@<TRIPOS>BOND
     1     1     2   1
     2     2     3   1
     3     3     4  ar
     4     3    31  ar
     5     4     5  ar
     6     5     6  ar
     7     6     7   1
     8     6    30  ar
     9     7     8  am
    10     8     9   2
    11     8    10   1
    12    10    11  ar
    13    10    26  ar
    14    11    12  ar
    15    12    13   1
    16    12    20  ar
    17    13    14   1
    18    14    15  ar
    19    14    19  ar
    20    15    16  ar
    21    16    17  ar
    22    17    18  ar
    23    18    19  ar
    24    20    21  ar
    25    20    25  ar
    26    21    22  ar
    27    22    23  ar
    28    22    27   1
    29    23    24  ar
    30    24    25  ar
    31    25    26  ar
    32    27    28  ar
    33    27    29  ar
    34    30    31  ar
    35     1    32   1
    36     1    33   1
    37     1    34   1
    38     2    35   1
    39     2    36   1
    40     4    37   1
    41     5    38   1
    42     7    39   1
    43    11    40   1
    44    13    41   1
    45    16    42   1
    46    17    43   1
    47    18    44   1
    48    21    45   1
    49    23    46   1
    50    24    47   1
    51    26    48   1
    52    28    49   1
    53    28    50   1
    54    29    51   1
    55    29    52   1
    56    30    53   1
    57    31    54   1
@<TRIPOS>SUBSTRUCTURE
     1  UI1      2

