@<TRIPOS>MOLECULE
1sqa_ligand_028
    54    57
SMALL
GAST_HUCK
****
This file was generated by PARSER (from files_GN.cpp)

@<TRIPOS>ATOM
      1 N1         31.6706   16.6976   37.1793 N.4         1 UI1       0.2289
      2 C2         31.0241   15.6510   36.3793 C.3         1 UI1      -0.0082
      3 C3         29.6135   16.0178   36.1091 C.ar        1 UI1      -0.0133
      4 C4         28.6785   16.0223   37.1702 C.ar        1 UI1      -0.0682
      5 C5         27.3467   16.4144   36.9529 C.ar        1 UI1      -0.0471
      6 C6         26.9259   16.7930   35.6650 C.ar        1 UI1       0.0594
      7 N7         25.6515   17.2150   35.4824 N.am        1 UI1      -0.2371
      8 C8         24.6807   16.5429   34.8756 C.2         1 UI1       0.2269
      9 O9         24.8946   15.4028   34.4757 O.2         1 UI1      -0.3740
     10 C10        23.4127   17.1090   34.7164 C.ar        1 UI1       0.0420
     11 C11        22.2775   16.3016   34.4737 C.ar        1 UI1      -0.0212
     12 C12        20.9917   16.8594   34.3147 C.ar        1 UI1       0.0814
     13 N13        19.9529   16.0337   34.0290 N.pl3       1 UI1      -0.2366
     14 C14        19.7993   15.4255   32.8348 C.ar        1 UI1       0.2162
     15 N15        18.6929   14.6662   32.6409 N.ar        1 UI1      -0.2483
     16 C16        18.4537   14.0521   31.4557 C.ar        1 UI1       0.0160
     17 C17        19.3578   14.2005   30.3915 C.ar        1 UI1      -0.0217
     18 C18        20.5093   14.9754   30.6160 C.ar        1 UI1       0.0160
     19 N19        20.6949   15.5650   31.8189 N.ar        1 UI1      -0.2483
     20 C20        20.8126   18.2628   34.3559 C.ar        1 UI1       0.0152
     21 C21        19.5460   18.8687   34.1705 C.ar        1 UI1      -0.0470
     22 C22        19.3732   20.2760   34.1197 C.ar        1 UI1       0.0254
     23 C23        20.5438   21.0664   34.2339 C.ar        1 UI1      -0.0575
     24 C24        21.8053   20.4862   34.4564 C.ar        1 UI1      -0.0567
     25 C25        21.9515   19.0891   34.5339 C.ar        1 UI1      -0.0208
     26 C26        23.2220   18.5122   34.7454 C.ar        1 UI1      -0.0476
     27 C27        18.0986   20.8566   33.9847 C.cat       1 UI1       0.2346
     28 N28        17.0204   20.1725   34.0466 N.pl3       1 UI1      -0.2724
     29 N29        17.9188   22.1111   33.8188 N.pl3       1 UI1      -0.2724
     30 C30        27.8443   16.7826   34.5960 C.ar        1 UI1      -0.0471
     31 C31        29.1799   16.4004   34.8178 C.ar        1 UI1      -0.0682
     32 H1         32.6354   16.4274   37.3787 H           1 UI1       0.2005
     33 H2         31.1650   16.8224   38.0602 H           1 UI1       0.2005
     34 H3         31.6663   17.5790   36.6590 H           1 UI1       0.2005
     35 H4         31.0621   14.7066   36.9255 H           1 UI1       0.0950
     36 H5         31.5932   15.5269   35.4562 H           1 UI1       0.0950
     37 H6         28.9629   15.7438   38.1123 H           1 UI1       0.0522
     38 H7         26.6895   16.4261   37.7359 H           1 UI1       0.0488
     39 H8         25.4152   18.0579   35.8978 H           1 UI1       0.2231
     40 H9         22.3784   15.2830   34.4231 H           1 UI1       0.0523
     41 H10        19.1920   16.0305   34.6297 H           1 UI1       0.2211
     42 H11        17.6365   13.4515   31.3523 H           1 UI1       0.0903
     43 H12        19.2054   13.7250   29.5012 H           1 UI1       0.0673
     44 H13        21.2196   15.0817   29.8911 H           1 UI1       0.0903
     45 H14        18.7318   18.2626   34.0617 H           1 UI1       0.0632
     46 H15        20.4949   22.0865   34.1757 H           1 UI1       0.0617
     47 H16        22.6231   21.0920   34.5440 H           1 UI1       0.0609
     48 H17        24.0264   19.1322   34.8802 H           1 UI1       0.0557
     49 H18        16.1894   20.5996   34.0099 H           1 UI1       0.3181
     50 H19        17.0500   19.2483   34.1794 H           1 UI1       0.3181
     51 H20        18.6451   22.6954   33.7657 H           1 UI1       0.3181
     52 H21        17.0513   22.4530   33.7504 H           1 UI1       0.3181
     53 H22        27.5524   17.0820   33.6611 H           1 UI1       0.0488
     54 H23        29.8393   16.4282   34.0363 H           1 UI1       0.0522
@<TRIPOS>BOND
     1     1     2   1
     2     2     3   1
     3     3     4  ar
     4     3    31  ar
     5     4     5  ar
     6     5     6  ar
     7     6     7   1
     8     6    30  ar
     9     7     8  am
    10     8     9   2
    11     8    10   1
    12    10    11  ar
    13    10    26  ar
    14    11    12  ar
    15    12    13   1
    16    12    20  ar
    17    13    14   1
    18    14    15  ar
    19    14    19  ar
    20    15    16  ar
    21    16    17  ar
    22    17    18  ar
    23    18    19  ar
    24    20    21  ar
    25    20    25  ar
    26    21    22  ar
    27    22    23  ar
    28    22    27   1
    29    23    24  ar
    30    24    25  ar
    31    25    26  ar
    32    27    28  ar
    33    27    29  ar
    34    30    31  ar
    35     1    32   1
    36     1    33   1
    37     1    34   1
    38     2    35   1
    39     2    36   1
    40     4    37   1
    41     5    38   1
    42     7    39   1
    43    11    40   1
    44    13    41   1
    45    16    42   1
    46    17    43   1
    47    18    44   1
    48    21    45   1
    49    23    46   1
    50    24    47   1
    51    26    48   1
    52    28    49   1
    53    28    50   1
    54    29    51   1
    55    29    52   1
    56    30    53   1
    57    31    54   1
@<TRIPOS>SUBSTRUCTURE
     1  UI1      2

