@<TRIPOS>MOLECULE
1sqa_ligand_017
    54    57
SMALL
GAST_HUCK
****
This file was generated by PARSER (from files_GN.cpp)

@<TRIPOS>ATOM
      1 N1         19.1964   18.6224   34.4830 N.4         1 UI1       0.2289
      2 C2         20.1480   18.7453   33.3700 C.3         1 UI1      -0.0082
      3 C3         20.8979   17.4790   33.1722 C.ar        1 UI1      -0.0133
      4 C4         20.8201   16.7562   31.9601 C.ar        1 UI1      -0.0682
      5 C5         21.5862   15.5923   31.7674 C.ar        1 UI1      -0.0471
      6 C6         22.4179   15.0999   32.7954 C.ar        1 UI1       0.0594
      7 N7         23.1495   13.9783   32.5305 N.am        1 UI1      -0.2371
      8 C8         23.3221   12.9043   33.3060 C.2         1 UI1       0.2269
      9 O9         22.7444   12.8501   34.3863 O.2         1 UI1      -0.3740
     10 C10        24.0405   11.7759   32.8676 C.ar        1 UI1       0.0420
     11 C11        24.0810   10.5833   33.6362 C.ar        1 UI1      -0.0212
     12 C12        24.7504    9.4244   33.1883 C.ar        1 UI1       0.0814
     13 N13        24.6618    8.2705   33.9131 N.pl3       1 UI1      -0.2366
     14 C14        25.1340    8.0746   35.1641 C.ar        1 UI1       0.2162
     15 N15        25.0478    6.8204   35.6803 N.ar        1 UI1      -0.2483
     16 C16        25.5459    6.5098   36.9047 C.ar        1 UI1       0.0160
     17 C17        26.1903    7.4979   37.6677 C.ar        1 UI1      -0.0217
     18 C18        26.2778    8.7904   37.1246 C.ar        1 UI1       0.0160
     19 N19        25.7523    9.0453   35.8998 N.ar        1 UI1      -0.2483
     20 C20        25.4555    9.4482   31.9573 C.ar        1 UI1       0.0152
     21 C21        26.1952    8.3383   31.4734 C.ar        1 UI1      -0.0470
     22 C22        26.9342    8.3802   30.2589 C.ar        1 UI1       0.0254
     23 C23        26.9022    9.5949   29.5277 C.ar        1 UI1      -0.0575
     24 C24        26.1695   10.7027   29.9763 C.ar        1 UI1      -0.0567
     25 C25        25.4522   10.6437   31.1887 C.ar        1 UI1      -0.0208
     26 C26        24.7371   11.7728   31.6392 C.ar        1 UI1      -0.0476
     27 C27        27.6669    7.2723   29.7975 C.cat       1 UI1       0.2346
     28 N28        28.4734    7.3399   28.8068 N.pl3       1 UI1      -0.2724
     29 N29        27.5919    6.1122   30.3295 N.pl3       1 UI1      -0.2724
     30 C30        22.4875   15.8121   34.0123 C.ar        1 UI1      -0.0471
     31 C31        21.7406   16.9875   34.1985 C.ar        1 UI1      -0.0682
     32 H1         18.6643   19.4921   34.5701 H           1 UI1       0.2005
     33 H2         19.6980   18.4459   35.3551 H           1 UI1       0.2005
     34 H3         18.5545   17.8496   34.2987 H           1 UI1       0.2005
     35 H4         20.8518   19.5494   33.5916 H           1 UI1       0.0950
     36 H5         19.5866   19.0223   32.4806 H           1 UI1       0.0950
     37 H6         20.2115   17.0808   31.2049 H           1 UI1       0.0522
     38 H7         21.5209   15.0949   30.8729 H           1 UI1       0.0488
     39 H8         23.4896   13.9171   31.6258 H           1 UI1       0.2231
     40 H9         23.5771   10.5320   34.5273 H           1 UI1       0.0523
     41 H10        24.3530    7.4793   33.4441 H           1 UI1       0.2211
     42 H11        25.4557    5.5560   37.2595 H           1 UI1       0.0903
     43 H12        26.5858    7.2831   38.5838 H           1 UI1       0.0673
     44 H13        26.7461    9.5370   37.6401 H           1 UI1       0.0903
     45 H14        26.2184    7.4863   32.0385 H           1 UI1       0.0632
     46 H15        27.4087    9.6934   28.6487 H           1 UI1       0.0617
     47 H16        26.1657   11.5562   29.4078 H           1 UI1       0.0609
     48 H17        24.7480   12.6118   31.0513 H           1 UI1       0.0557
     49 H18        28.9472    6.5809   28.5333 H           1 UI1       0.3181
     50 H19        28.6084    8.1474   28.3548 H           1 UI1       0.3181
     51 H20        27.0311    5.9570   31.0589 H           1 UI1       0.3181
     52 H21        28.1039    5.4070   29.9882 H           1 UI1       0.3181
     53 H22        23.1122   15.4987   34.7629 H           1 UI1       0.0488
     54 H23        21.8283   17.4944   35.0818 H           1 UI1       0.0522
@<TRIPOS>BOND
     1     1     2   1
     2     2     3   1
     3     3     4  ar
     4     3    31  ar
     5     4     5  ar
     6     5     6  ar
     7     6     7   1
     8     6    30  ar
     9     7     8  am
    10     8     9   2
    11     8    10   1
    12    10    11  ar
    13    10    26  ar
    14    11    12  ar
    15    12    13   1
    16    12    20  ar
    17    13    14   1
    18    14    15  ar
    19    14    19  ar
    20    15    16  ar
    21    16    17  ar
    22    17    18  ar
    23    18    19  ar
    24    20    21  ar
    25    20    25  ar
    26    21    22  ar
    27    22    23  ar
    28    22    27   1
    29    23    24  ar
    30    24    25  ar
    31    25    26  ar
    32    27    28  ar
    33    27    29  ar
    34    30    31  ar
    35     1    32   1
    36     1    33   1
    37     1    34   1
    38     2    35   1
    39     2    36   1
    40     4    37   1
    41     5    38   1
    42     7    39   1
    43    11    40   1
    44    13    41   1
    45    16    42   1
    46    17    43   1
    47    18    44   1
    48    21    45   1
    49    23    46   1
    50    24    47   1
    51    26    48   1
    52    28    49   1
    53    28    50   1
    54    29    51   1
    55    29    52   1
    56    30    53   1
    57    31    54   1
@<TRIPOS>SUBSTRUCTURE
     1  UI1      2

