@<TRIPOS>MOLECULE
1sqa_ligand_015
    54    57
SMALL
GAST_HUCK
****
This file was generated by PARSER (from files_GN.cpp)

@<TRIPOS>ATOM
      1 N1         18.8478   20.0179   35.4203 N.4         1 UI1       0.2289
      2 C2         18.4707   19.4145   34.1375 C.3         1 UI1      -0.0082
      3 C3         19.4605   18.3936   33.7226 C.ar        1 UI1      -0.0133
      4 C4         20.6821   18.7971   33.1419 C.ar        1 UI1      -0.0682
      5 C5         21.6174   17.8454   32.6993 C.ar        1 UI1      -0.0471
      6 C6         21.3655   16.4631   32.8455 C.ar        1 UI1       0.0594
      7 N7         22.2516   15.4988   32.4482 N.am        1 UI1      -0.2371
      8 C8         22.9893   15.4688   31.3390 C.2         1 UI1       0.2269
      9 O9         22.8112   16.3282   30.4824 O.2         1 UI1      -0.3740
     10 C10        23.9354   14.4587   31.0945 C.ar        1 UI1       0.0420
     11 C11        24.9555   14.6415   30.1261 C.ar        1 UI1      -0.0212
     12 C12        25.9464   13.6680   29.8779 C.ar        1 UI1       0.0814
     13 N13        26.8944   14.0086   28.9548 N.pl3       1 UI1      -0.2366
     14 C14        27.2409   13.3131   27.8490 C.ar        1 UI1       0.2162
     15 N15        28.2664   13.7921   27.0941 N.ar        1 UI1      -0.2483
     16 C16        28.7053   13.1447   25.9842 C.ar        1 UI1       0.0160
     17 C17        28.0868   11.9466   25.5848 C.ar        1 UI1      -0.0217
     18 C18        27.0150   11.4729   26.3616 C.ar        1 UI1       0.0160
     19 N19        26.6234   12.1613   27.4636 N.ar        1 UI1      -0.2483
     20 C20        25.9563   12.4685   30.6428 C.ar        1 UI1       0.0152
     21 C21        26.9780   11.4910   30.5225 C.ar        1 UI1      -0.0470
     22 C22        26.9701   10.2703   31.2453 C.ar        1 UI1       0.0254
     23 C23        25.9098   10.0818   32.1675 C.ar        1 UI1      -0.0575
     24 C24        24.9122   11.0550   32.3490 C.ar        1 UI1      -0.0567
     25 C25        24.9262   12.2493   31.5999 C.ar        1 UI1      -0.0208
     26 C26        23.9396   13.2399   31.8134 C.ar        1 UI1      -0.0476
     27 C27        27.9683    9.2980   31.0480 C.cat       1 UI1       0.2346
     28 N28        29.0147    9.4980   30.3405 N.pl3       1 UI1      -0.2724
     29 N29        27.8999    8.1271   31.5556 N.pl3       1 UI1      -0.2724
     30 C30        20.1721   16.0592   33.4848 C.ar        1 UI1      -0.0471
     31 C31        19.2201   17.0123   33.9031 C.ar        1 UI1      -0.0682
     32 H1         18.2262   20.8019   35.6184 H           1 UI1       0.2005
     33 H2         19.8129   20.3514   35.3929 H           1 UI1       0.2005
     34 H3         18.7358   19.3184   36.1541 H           1 UI1       0.2005
     35 H4         18.3989   20.2011   33.3800 H           1 UI1       0.0950
     36 H5         17.4744   18.9787   34.2518 H           1 UI1       0.0950
     37 H6         20.8992   19.7878   33.0381 H           1 UI1       0.0522
     38 H7         22.4992   18.1676   32.2862 H           1 UI1       0.0488
     39 H8         22.3234   14.7312   33.0365 H           1 UI1       0.2231
     40 H9         24.9900   15.5145   29.5894 H           1 UI1       0.0523
     41 H10        27.3084   14.8811   29.0570 H           1 UI1       0.2211
     42 H11        29.4900   13.5254   25.4529 H           1 UI1       0.0903
     43 H12        28.4065   11.4376   24.7589 H           1 UI1       0.0673
     44 H13        26.5400   10.6053   26.1107 H           1 UI1       0.0903
     45 H14        27.7501   11.6758   29.8834 H           1 UI1       0.0632
     46 H15        25.8557    9.2376   32.7399 H           1 UI1       0.0617
     47 H16        24.1809   10.8865   33.0453 H           1 UI1       0.0609
     48 H17        23.2132   13.0569   32.5099 H           1 UI1       0.0557
     49 H18        29.6457    8.8160   30.2308 H           1 UI1       0.3181
     50 H19        29.1615   10.3193   29.9241 H           1 UI1       0.3181
     51 H20        27.1693    7.8765   32.0799 H           1 UI1       0.3181
     52 H21        28.5803    7.5040   31.3950 H           1 UI1       0.3181
     53 H22        19.9786   15.0645   33.6369 H           1 UI1       0.0488
     54 H23        18.3587   16.6898   34.3494 H           1 UI1       0.0522
@<TRIPOS>BOND
     1     1     2   1
     2     2     3   1
     3     3     4  ar
     4     3    31  ar
     5     4     5  ar
     6     5     6  ar
     7     6     7   1
     8     6    30  ar
     9     7     8  am
    10     8     9   2
    11     8    10   1
    12    10    11  ar
    13    10    26  ar
    14    11    12  ar
    15    12    13   1
    16    12    20  ar
    17    13    14   1
    18    14    15  ar
    19    14    19  ar
    20    15    16  ar
    21    16    17  ar
    22    17    18  ar
    23    18    19  ar
    24    20    21  ar
    25    20    25  ar
    26    21    22  ar
    27    22    23  ar
    28    22    27   1
    29    23    24  ar
    30    24    25  ar
    31    25    26  ar
    32    27    28  ar
    33    27    29  ar
    34    30    31  ar
    35     1    32   1
    36     1    33   1
    37     1    34   1
    38     2    35   1
    39     2    36   1
    40     4    37   1
    41     5    38   1
    42     7    39   1
    43    11    40   1
    44    13    41   1
    45    16    42   1
    46    17    43   1
    47    18    44   1
    48    21    45   1
    49    23    46   1
    50    24    47   1
    51    26    48   1
    52    28    49   1
    53    28    50   1
    54    29    51   1
    55    29    52   1
    56    30    53   1
    57    31    54   1
@<TRIPOS>SUBSTRUCTURE
     1  UI1      2

