@<TRIPOS>MOLECULE
1sqa_ligand_016
    54    57
SMALL
GAST_HUCK
****
This file was generated by PARSER (from files_GN.cpp)

@<TRIPOS>ATOM
      1 N1         32.2561   22.6892   30.3891 N.4         1 UI1       0.2289
      2 C2         31.2982   23.4249   31.2261 C.3         1 UI1      -0.0082
      3 C3         30.0649   22.6320   31.4622 C.ar        1 UI1      -0.0133
      4 C4         29.2724   22.2311   30.3642 C.ar        1 UI1      -0.0682
      5 C5         28.1116   21.4658   30.5651 C.ar        1 UI1      -0.0471
      6 C6         27.6834   21.1333   31.8673 C.ar        1 UI1       0.0594
      7 N7         26.5788   20.3412   31.9696 N.am        1 UI1      -0.2371
      8 C8         25.5661   20.3910   32.8318 C.2         1 UI1       0.2269
      9 O9         25.5358   21.2954   33.6606 O.2         1 UI1      -0.3740
     10 C10        24.5100   19.4575   32.7619 C.ar        1 UI1       0.0420
     11 C11        24.4705   18.4338   31.7791 C.ar        1 UI1      -0.0212
     12 C12        23.4400   17.4664   31.7216 C.ar        1 UI1       0.0814
     13 N13        23.4931   16.4831   30.7689 N.pl3       1 UI1      -0.2366
     14 C14        24.5299   15.6376   30.5543 C.ar        1 UI1       0.2162
     15 N15        24.4505   14.7527   29.5259 N.ar        1 UI1      -0.2483
     16 C16        25.4431   13.8623   29.2652 C.ar        1 UI1       0.0160
     17 C17        26.5838   13.8280   30.0861 C.ar        1 UI1      -0.0217
     18 C18        26.6506   14.7328   31.1581 C.ar        1 UI1       0.0160
     19 N19        25.6319   15.6050   31.3555 N.ar        1 UI1      -0.2483
     20 C20        22.3505   17.5531   32.6254 C.ar        1 UI1       0.0152
     21 C21        21.2712   16.6336   32.6001 C.ar        1 UI1      -0.0470
     22 C22        20.1897   16.7052   33.5171 C.ar        1 UI1       0.0254
     23 C23        20.2295   17.7440   34.4816 C.ar        1 UI1      -0.0575
     24 C24        21.2903   18.6617   34.5312 C.ar        1 UI1      -0.0567
     25 C25        22.3567   18.5747   33.6137 C.ar        1 UI1      -0.0208
     26 C26        23.4306   19.4916   33.6809 C.ar        1 UI1      -0.0476
     27 C27        19.1256   15.7875   33.4759 C.cat       1 UI1       0.2346
     28 N28        19.1365   14.7206   32.7711 N.pl3       1 UI1      -0.2724
     29 N29        18.0495   15.9463   34.1463 N.pl3       1 UI1      -0.2724
     30 C30        28.4585   21.5491   32.9726 C.ar        1 UI1      -0.0471
     31 C31        29.6419   22.2825   32.7668 C.ar        1 UI1      -0.0682
     32 H1         33.0941   23.2589   30.2537 H           1 UI1       0.2005
     33 H2         31.8386   22.4899   29.4779 H           1 UI1       0.2005
     34 H3         32.5144   21.8093   30.8433 H           1 UI1       0.2005
     35 H4         31.0373   24.3552   30.7175 H           1 UI1       0.0950
     36 H5         31.7971   23.6843   32.1631 H           1 UI1       0.0950
     37 H6         29.5401   22.4828   29.4082 H           1 UI1       0.0522
     38 H7         27.5683   21.1635   29.7490 H           1 UI1       0.0488
     39 H8         26.4964   19.6910   31.2618 H           1 UI1       0.2231
     40 H9         25.2012   18.3707   31.0699 H           1 UI1       0.0523
     41 H10        22.6836   16.3205   30.2540 H           1 UI1       0.2211
     42 H11        25.3515   13.2202   28.4768 H           1 UI1       0.0903
     43 H12        27.3381   13.1620   29.9153 H           1 UI1       0.0673
     44 H13        27.4501   14.7361   31.7947 H           1 UI1       0.0903
     45 H14        21.2746   15.8957   31.8941 H           1 UI1       0.0632
     46 H15        19.4868   17.8506   35.1761 H           1 UI1       0.0617
     47 H16        21.2803   19.3925   35.2469 H           1 UI1       0.0609
     48 H17        23.4132   20.2057   34.4115 H           1 UI1       0.0557
     49 H18        18.3976   14.1494   32.7918 H           1 UI1       0.3181
     50 H19        19.8706   14.4877   32.2490 H           1 UI1       0.3181
     51 H20        17.9366   16.6994   34.6828 H           1 UI1       0.3181
     52 H21        17.3664   15.3083   34.0981 H           1 UI1       0.3181
     53 H22        28.1864   21.2859   33.9233 H           1 UI1       0.0488
     54 H23        30.2043   22.5477   33.5765 H           1 UI1       0.0522
@<TRIPOS>BOND
     1     1     2   1
     2     2     3   1
     3     3     4  ar
     4     3    31  ar
     5     4     5  ar
     6     5     6  ar
     7     6     7   1
     8     6    30  ar
     9     7     8  am
    10     8     9   2
    11     8    10   1
    12    10    11  ar
    13    10    26  ar
    14    11    12  ar
    15    12    13   1
    16    12    20  ar
    17    13    14   1
    18    14    15  ar
    19    14    19  ar
    20    15    16  ar
    21    16    17  ar
    22    17    18  ar
    23    18    19  ar
    24    20    21  ar
    25    20    25  ar
    26    21    22  ar
    27    22    23  ar
    28    22    27   1
    29    23    24  ar
    30    24    25  ar
    31    25    26  ar
    32    27    28  ar
    33    27    29  ar
    34    30    31  ar
    35     1    32   1
    36     1    33   1
    37     1    34   1
    38     2    35   1
    39     2    36   1
    40     4    37   1
    41     5    38   1
    42     7    39   1
    43    11    40   1
    44    13    41   1
    45    16    42   1
    46    17    43   1
    47    18    44   1
    48    21    45   1
    49    23    46   1
    50    24    47   1
    51    26    48   1
    52    28    49   1
    53    28    50   1
    54    29    51   1
    55    29    52   1
    56    30    53   1
    57    31    54   1
@<TRIPOS>SUBSTRUCTURE
     1  UI1      2

