@<TRIPOS>MOLECULE
1sqa_ligand_027
    54    57
SMALL
GAST_HUCK
****
This file was generated by PARSER (from files_GN.cpp)

@<TRIPOS>ATOM
      1 N1         18.3993   21.7740   34.1297 N.4         1 UI1       0.2289
      2 C2         18.3574   20.5144   34.8799 C.3         1 UI1      -0.0082
      3 C3         19.4434   19.5456   34.5795 C.ar        1 UI1      -0.0133
      4 C4         19.1798   18.1611   34.6928 C.ar        1 UI1      -0.0682
      5 C5         20.1949   17.2119   34.4936 C.ar        1 UI1      -0.0471
      6 C6         21.5036   17.6315   34.2000 C.ar        1 UI1       0.0594
      7 N7         22.4250   16.7006   33.8673 N.am        1 UI1      -0.2371
      8 C8         23.4099   16.2244   34.6221 C.2         1 UI1       0.2269
      9 O9         23.5445   16.6603   35.7612 O.2         1 UI1      -0.3740
     10 C10        24.3255   15.2913   34.1052 C.ar        1 UI1       0.0420
     11 C11        24.1693   14.7382   32.8149 C.ar        1 UI1      -0.0212
     12 C12        25.1736   13.9830   32.1707 C.ar        1 UI1       0.0814
     13 N13        25.0389   13.6907   30.8327 N.pl3       1 UI1      -0.2366
     14 C14        24.4655   14.4782   29.8891 C.ar        1 UI1       0.2162
     15 N15        24.1882   13.9303   28.6825 N.ar        1 UI1      -0.2483
     16 C16        23.5088   14.6073   27.7234 C.ar        1 UI1       0.0160
     17 C17        23.0883   15.9264   27.9540 C.ar        1 UI1      -0.0217
     18 C18        23.4126   16.5068   29.1892 C.ar        1 UI1       0.0160
     19 N19        24.0866   15.7713   30.1052 N.ar        1 UI1      -0.2483
     20 C20        26.2795   13.5337   32.9416 C.ar        1 UI1       0.0152
     21 C21        27.2516   12.6361   32.4332 C.ar        1 UI1      -0.0470
     22 C22        28.3354   12.1594   33.2195 C.ar        1 UI1       0.0254
     23 C23        28.4409   12.6563   34.5433 C.ar        1 UI1      -0.0575
     24 C24        27.5113   13.5708   35.0605 C.ar        1 UI1      -0.0567
     25 C25        26.4216   14.0018   34.2787 C.ar        1 UI1      -0.0208
     26 C26        25.4817   14.9048   34.8224 C.ar        1 UI1      -0.0476
     27 C27        29.2573   11.2248   32.7142 C.cat       1 UI1       0.2346
     28 N28        29.3424   10.9372   31.4715 N.pl3       1 UI1      -0.2724
     29 N29        30.0720   10.5863   33.4614 N.pl3       1 UI1      -0.2724
     30 C30        21.7872   19.0060   34.0790 C.ar        1 UI1      -0.0471
     31 C31        20.7635   19.9540   34.2682 C.ar        1 UI1      -0.0682
     32 H1         17.5933   22.3351   34.4130 H           1 UI1       0.2005
     33 H2         18.3551   21.5904   33.1249 H           1 UI1       0.2005
     34 H3         19.2570   22.2808   34.3552 H           1 UI1       0.2005
     35 H4         17.3796   20.0692   34.6775 H           1 UI1       0.0950
     36 H5         18.4051   20.7547   35.9431 H           1 UI1       0.0950
     37 H6         18.2400   17.8286   34.9140 H           1 UI1       0.0522
     38 H7         19.9752   16.2150   34.5568 H           1 UI1       0.0488
     39 H8         22.3275   16.3361   32.9779 H           1 UI1       0.2231
     40 H9         23.3050   14.9071   32.3021 H           1 UI1       0.0523
     41 H10        25.3735   12.8318   30.5280 H           1 UI1       0.2211
     42 H11        23.2896   14.1471   26.8396 H           1 UI1       0.0903
     43 H12        22.5711   16.4456   27.2442 H           1 UI1       0.0673
     44 H13        23.1340   17.4585   29.4137 H           1 UI1       0.0903
     45 H14        27.1448   12.2895   31.4780 H           1 UI1       0.0632
     46 H15        29.2046   12.3649   35.1570 H           1 UI1       0.0617
     47 H16        27.6285   13.9078   36.0202 H           1 UI1       0.0609
     48 H17        25.6414   15.2752   35.7642 H           1 UI1       0.0557
     49 H18        29.9673   10.3049   31.1793 H           1 UI1       0.3181
     50 H19        28.7887   11.3543   30.8454 H           1 UI1       0.3181
     51 H20        30.0749   10.7180   34.3866 H           1 UI1       0.3181
     52 H21        30.6672    9.9698   33.0857 H           1 UI1       0.3181
     53 H22        22.7291   19.3192   33.8290 H           1 UI1       0.0488
     54 H23        20.9936   20.9442   34.1688 H           1 UI1       0.0522
@<TRIPOS>BOND
     1     1     2   1
     2     2     3   1
     3     3     4  ar
     4     3    31  ar
     5     4     5  ar
     6     5     6  ar
     7     6     7   1
     8     6    30  ar
     9     7     8  am
    10     8     9   2
    11     8    10   1
    12    10    11  ar
    13    10    26  ar
    14    11    12  ar
    15    12    13   1
    16    12    20  ar
    17    13    14   1
    18    14    15  ar
    19    14    19  ar
    20    15    16  ar
    21    16    17  ar
    22    17    18  ar
    23    18    19  ar
    24    20    21  ar
    25    20    25  ar
    26    21    22  ar
    27    22    23  ar
    28    22    27   1
    29    23    24  ar
    30    24    25  ar
    31    25    26  ar
    32    27    28  ar
    33    27    29  ar
    34    30    31  ar
    35     1    32   1
    36     1    33   1
    37     1    34   1
    38     2    35   1
    39     2    36   1
    40     4    37   1
    41     5    38   1
    42     7    39   1
    43    11    40   1
    44    13    41   1
    45    16    42   1
    46    17    43   1
    47    18    44   1
    48    21    45   1
    49    23    46   1
    50    24    47   1
    51    26    48   1
    52    28    49   1
    53    28    50   1
    54    29    51   1
    55    29    52   1
    56    30    53   1
    57    31    54   1
@<TRIPOS>SUBSTRUCTURE
     1  UI1      2

