@<TRIPOS>MOLECULE
1sqa_ligand_018
    54    57
SMALL
GAST_HUCK
****
This file was generated by PARSER (from files_GN.cpp)

@<TRIPOS>ATOM
      1 N1         17.3908   20.4966   34.3965 N.4         1 UI1       0.2289
      2 C2         17.7258   19.5074   33.3685 C.3         1 UI1      -0.0082
      3 C3         18.9871   18.8069   33.7061 C.ar        1 UI1      -0.0133
      4 C4         19.0084   17.4111   33.9256 C.ar        1 UI1      -0.0682
      5 C5         20.2108   16.7506   34.2252 C.ar        1 UI1      -0.0471
      6 C6         21.4164   17.4780   34.3333 C.ar        1 UI1       0.0594
      7 N7         22.6067   16.8996   34.6613 N.am        1 UI1      -0.2371
      8 C8         23.2984   16.0042   33.9494 C.2         1 UI1       0.2269
      9 O9         22.8823   15.6606   32.8516 O.2         1 UI1      -0.3740
     10 C10        24.5068   15.4717   34.4349 C.ar        1 UI1       0.0420
     11 C11        25.2973   16.1663   35.3723 C.ar        1 UI1      -0.0212
     12 C12        26.4390   15.6002   35.9880 C.ar        1 UI1       0.0814
     13 N13        27.1057   16.3144   36.9587 N.pl3       1 UI1      -0.2366
     14 C14        26.5517   17.0887   37.9299 C.ar        1 UI1       0.2162
     15 N15        27.3826   17.7942   38.7436 N.ar        1 UI1      -0.2483
     16 C16        26.9144   18.5974   39.7325 C.ar        1 UI1       0.0160
     17 C17        25.5288   18.7127   39.9421 C.ar        1 UI1      -0.0217
     18 C18        24.6751   17.9616   39.1181 C.ar        1 UI1       0.0160
     19 N19        25.2063   17.1887   38.1413 N.ar        1 UI1      -0.2483
     20 C20        26.8881   14.3234   35.5496 C.ar        1 UI1       0.0152
     21 C21        28.0652   13.7099   36.0597 C.ar        1 UI1      -0.0470
     22 C22        28.5200   12.4380   35.6190 C.ar        1 UI1       0.0254
     23 C23        27.7186   11.7652   34.6633 C.ar        1 UI1      -0.0575
     24 C24        26.5482   12.3396   34.1470 C.ar        1 UI1      -0.0567
     25 C25        26.1312   13.6187   34.5727 C.ar        1 UI1      -0.0208
     26 C26        24.9527   14.1875   34.0411 C.ar        1 UI1      -0.0476
     27 C27        29.7138   11.8666   36.1019 C.cat       1 UI1       0.2346
     28 N28        30.4209   12.3897   37.0283 N.pl3       1 UI1      -0.2724
     29 N29        30.1910   10.7713   35.6452 N.pl3       1 UI1      -0.2724
     30 C30        21.3971   18.8767   34.1450 C.ar        1 UI1      -0.0471
     31 C31        20.1963   19.5319   33.8130 C.ar        1 UI1      -0.0682
     32 H1         16.4578   20.8741   34.2232 H           1 UI1       0.2005
     33 H2         18.0752   21.2543   34.3833 H           1 UI1       0.2005
     34 H3         17.3969   20.0488   35.3186 H           1 UI1       0.2005
     35 H4         17.8319   20.0107   32.4056 H           1 UI1       0.0950
     36 H5         16.8886   18.8087   33.2928 H           1 UI1       0.0950
     37 H6         18.1419   16.8665   33.8757 H           1 UI1       0.0522
     38 H7         20.1980   15.7394   34.3839 H           1 UI1       0.0488
     39 H8         23.0281   17.2450   35.4527 H           1 UI1       0.2231
     40 H9         25.0563   17.1267   35.6175 H           1 UI1       0.0523
     41 H10        28.0675   16.2313   36.9788 H           1 UI1       0.2211
     42 H11        27.5693   19.1064   40.3239 H           1 UI1       0.0903
     43 H12        25.1497   19.3137   40.6821 H           1 UI1       0.0673
     44 H13        23.6634   17.9968   39.2411 H           1 UI1       0.0903
     45 H14        28.6084   14.2134   36.7593 H           1 UI1       0.0632
     46 H15        27.9730   10.8337   34.3198 H           1 UI1       0.0617
     47 H16        26.0077   11.8166   33.4528 H           1 UI1       0.0609
     48 H17        24.4060   13.6467   33.3661 H           1 UI1       0.0557
     49 H18        31.2073   11.9648   37.3081 H           1 UI1       0.3181
     50 H19        30.1652   13.1894   37.4369 H           1 UI1       0.3181
     51 H20        29.7544   10.3072   34.9628 H           1 UI1       0.3181
     52 H21        30.9884   10.4272   35.9947 H           1 UI1       0.3181
     53 H22        22.2601   19.4189   34.2226 H           1 UI1       0.0488
     54 H23        20.2108   20.5415   33.6619 H           1 UI1       0.0522
@<TRIPOS>BOND
     1     1     2   1
     2     2     3   1
     3     3     4  ar
     4     3    31  ar
     5     4     5  ar
     6     5     6  ar
     7     6     7   1
     8     6    30  ar
     9     7     8  am
    10     8     9   2
    11     8    10   1
    12    10    11  ar
    13    10    26  ar
    14    11    12  ar
    15    12    13   1
    16    12    20  ar
    17    13    14   1
    18    14    15  ar
    19    14    19  ar
    20    15    16  ar
    21    16    17  ar
    22    17    18  ar
    23    18    19  ar
    24    20    21  ar
    25    20    25  ar
    26    21    22  ar
    27    22    23  ar
    28    22    27   1
    29    23    24  ar
    30    24    25  ar
    31    25    26  ar
    32    27    28  ar
    33    27    29  ar
    34    30    31  ar
    35     1    32   1
    36     1    33   1
    37     1    34   1
    38     2    35   1
    39     2    36   1
    40     4    37   1
    41     5    38   1
    42     7    39   1
    43    11    40   1
    44    13    41   1
    45    16    42   1
    46    17    43   1
    47    18    44   1
    48    21    45   1
    49    23    46   1
    50    24    47   1
    51    26    48   1
    52    28    49   1
    53    28    50   1
    54    29    51   1
    55    29    52   1
    56    30    53   1
    57    31    54   1
@<TRIPOS>SUBSTRUCTURE
     1  UI1      2

