@<TRIPOS>MOLECULE
1sqa_ligand_011
    54    57
SMALL
GAST_HUCK
****
This file was generated by PARSER (from files_GN.cpp)

@<TRIPOS>ATOM
      1 N1         17.6221   20.4876   34.5604 N.4         1 UI1       0.2289
      2 C2         17.8061   19.5102   33.4813 C.3         1 UI1      -0.0082
      3 C3         18.9980   18.6663   33.7377 C.ar        1 UI1      -0.0133
      4 C4         18.8743   17.2735   33.9375 C.ar        1 UI1      -0.0682
      5 C5         20.0130   16.4801   34.1536 C.ar        1 UI1      -0.0471
      6 C6         21.3009   17.0705   34.1793 C.ar        1 UI1       0.0594
      7 N7         22.4216   16.3232   34.3775 N.am        1 UI1      -0.2371
      8 C8         22.9570   15.4414   33.5377 C.2         1 UI1       0.2269
      9 O9         22.5093   15.3681   32.3920 O.2         1 UI1      -0.3740
     10 C10        24.0368   14.6482   33.8997 C.ar        1 UI1       0.0420
     11 C11        24.0608   13.2780   33.5458 C.ar        1 UI1      -0.0212
     12 C12        25.0839   12.4063   33.9715 C.ar        1 UI1       0.0814
     13 N13        24.9097   11.0993   33.6156 N.pl3       1 UI1      -0.2366
     14 C14        25.0638    9.9947   34.3905 C.ar        1 UI1       0.2162
     15 N15        24.7989    8.7879   33.8168 N.ar        1 UI1      -0.2483
     16 C16        24.9261    7.6232   34.4992 C.ar        1 UI1       0.0160
     17 C17        25.3681    7.6356   35.8341 C.ar        1 UI1      -0.0217
     18 C18        25.6362    8.8899   36.4157 C.ar        1 UI1       0.0160
     19 N19        25.4506   10.0292   35.6950 N.ar        1 UI1      -0.2483
     20 C20        26.1796   12.9341   34.7089 C.ar        1 UI1       0.0152
     21 C21        27.2974   12.1448   35.0800 C.ar        1 UI1      -0.0470
     22 C22        28.3257   12.6261   35.9365 C.ar        1 UI1       0.0254
     23 C23        28.2655   13.9948   36.3034 C.ar        1 UI1      -0.0575
     24 C24        27.2268   14.8267   35.8597 C.ar        1 UI1      -0.0567
     25 C25        26.1731   14.3090   35.0738 C.ar        1 UI1      -0.0208
     26 C26        25.1115   15.1440   34.6704 C.ar        1 UI1      -0.0476
     27 C27        29.3234   11.7649   36.4282 C.cat       1 UI1       0.2346
     28 N28        29.3329   10.5083   36.1951 N.pl3       1 UI1      -0.2724
     29 N29        30.2784   12.1644   37.1764 N.pl3       1 UI1      -0.2724
     30 C30        21.4222   18.4629   34.0253 C.ar        1 UI1      -0.0471
     31 C31        20.2830   19.2501   33.7860 C.ar        1 UI1      -0.0682
     32 H1         16.7850   21.0441   34.3755 H           1 UI1       0.2005
     33 H2         18.4376   21.1040   34.6184 H           1 UI1       0.2005
     34 H3         17.5044   19.9980   35.4514 H           1 UI1       0.2005
     35 H4         17.9312   20.0440   32.5366 H           1 UI1       0.0950
     36 H5         16.8947   18.9145   33.4144 H           1 UI1       0.0950
     37 H6         17.9573   16.8229   33.9225 H           1 UI1       0.0522
     38 H7         19.9048   15.4711   34.2991 H           1 UI1       0.0488
     39 H8         22.8614   16.4402   35.2422 H           1 UI1       0.2231
     40 H9         23.2791   12.8900   33.0073 H           1 UI1       0.0523
     41 H10        24.5057   10.9405   32.7501 H           1 UI1       0.2211
     42 H11        24.7346    6.7396   34.0250 H           1 UI1       0.0903
     43 H12        25.5028    6.7661   36.3561 H           1 UI1       0.0673
     44 H13        25.9460    8.9478   37.3905 H           1 UI1       0.0903
     45 H14        27.3619   11.1898   34.7177 H           1 UI1       0.0632
     46 H15        28.9862   14.4048   36.9051 H           1 UI1       0.0617
     47 H16        27.2366   15.8115   36.1392 H           1 UI1       0.0609
     48 H17        25.1243   16.1298   34.9345 H           1 UI1       0.0557
     49 H18        30.0088    9.9748   36.5532 H           1 UI1       0.3181
     50 H19        28.6660   10.1125   35.6762 H           1 UI1       0.3181
     51 H20        30.3531   13.0632   37.4211 H           1 UI1       0.3181
     52 H21        30.9079   11.5489   37.4884 H           1 UI1       0.3181
     53 H22        22.3446   18.9035   34.0556 H           1 UI1       0.0488
     54 H23        20.4037   20.2561   33.6404 H           1 UI1       0.0522
@<TRIPOS>BOND
     1     1     2   1
     2     2     3   1
     3     3     4  ar
     4     3    31  ar
     5     4     5  ar
     6     5     6  ar
     7     6     7   1
     8     6    30  ar
     9     7     8  am
    10     8     9   2
    11     8    10   1
    12    10    11  ar
    13    10    26  ar
    14    11    12  ar
    15    12    13   1
    16    12    20  ar
    17    13    14   1
    18    14    15  ar
    19    14    19  ar
    20    15    16  ar
    21    16    17  ar
    22    17    18  ar
    23    18    19  ar
    24    20    21  ar
    25    20    25  ar
    26    21    22  ar
    27    22    23  ar
    28    22    27   1
    29    23    24  ar
    30    24    25  ar
    31    25    26  ar
    32    27    28  ar
    33    27    29  ar
    34    30    31  ar
    35     1    32   1
    36     1    33   1
    37     1    34   1
    38     2    35   1
    39     2    36   1
    40     4    37   1
    41     5    38   1
    42     7    39   1
    43    11    40   1
    44    13    41   1
    45    16    42   1
    46    17    43   1
    47    18    44   1
    48    21    45   1
    49    23    46   1
    50    24    47   1
    51    26    48   1
    52    28    49   1
    53    28    50   1
    54    29    51   1
    55    29    52   1
    56    30    53   1
    57    31    54   1
@<TRIPOS>SUBSTRUCTURE
     1  UI1      2

