@<TRIPOS>MOLECULE
1sqa_ligand_029
    54    57
SMALL
GAST_HUCK
****
This file was generated by PARSER (from files_GN.cpp)

@<TRIPOS>ATOM
      1 N1         18.0601   20.4416   35.0414 N.4         1 UI1       0.2289
      2 C2         18.2245   19.7355   33.7689 C.3         1 UI1      -0.0082
      3 C3         19.3301   18.7490   33.8497 C.ar        1 UI1      -0.0133
      4 C4         20.6724   19.1759   33.7404 C.ar        1 UI1      -0.0682
      5 C5         21.7330   18.2477   33.8034 C.ar        1 UI1      -0.0471
      6 C6         21.4681   16.8691   33.9776 C.ar        1 UI1       0.0594
      7 N7         22.4795   15.9417   34.0707 N.am        1 UI1      -0.2371
      8 C8         23.3430   15.5991   33.1215 C.2         1 UI1       0.2269
      9 O9         23.3917   16.2154   32.0645 O.2         1 UI1      -0.3740
     10 C10        24.2683   14.5841   33.3472 C.ar        1 UI1       0.0420
     11 C11        24.2776   13.4244   32.5519 C.ar        1 UI1      -0.0212
     12 C12        25.1995   12.3717   32.7606 C.ar        1 UI1       0.0814
     13 N13        25.1331   11.2983   31.9089 N.pl3       1 UI1      -0.2366
     14 C14        24.0237   10.5556   31.6719 C.ar        1 UI1       0.2162
     15 N15        24.1110    9.5678   30.7498 N.ar        1 UI1      -0.2483
     16 C16        23.0533    8.7893   30.4392 C.ar        1 UI1       0.0160
     17 C17        21.8192    8.9987   31.0718 C.ar        1 UI1      -0.0217
     18 C18        21.7374   10.0203   32.0331 C.ar        1 UI1       0.0160
     19 N19        22.8360   10.7589   32.3041 N.ar        1 UI1      -0.2483
     20 C20        26.2032   12.5036   33.7647 C.ar        1 UI1       0.0152
     21 C21        27.2068   11.5268   33.9973 C.ar        1 UI1      -0.0470
     22 C22        28.1899   11.6573   35.0202 C.ar        1 UI1       0.0254
     23 C23        28.1367   12.8302   35.8166 C.ar        1 UI1      -0.0575
     24 C24        27.1678   13.8216   35.6005 C.ar        1 UI1      -0.0567
     25 C25        26.1961   13.6712   34.5851 C.ar        1 UI1      -0.0208
     26 C26        25.2324   14.6878   34.3701 C.ar        1 UI1      -0.0476
     27 C27        29.1664   10.6660   35.2319 C.cat       1 UI1       0.2346
     28 N28        29.3603    9.6923   34.4314 N.pl3       1 UI1      -0.2724
     29 N29        29.9367   10.6610   36.2575 N.pl3       1 UI1      -0.2724
     30 C30        20.1296   16.4451   34.0962 C.ar        1 UI1      -0.0471
     31 C31        19.0715   17.3702   34.0210 C.ar        1 UI1      -0.0682
     32 H1         17.2715   21.0884   34.9753 H           1 UI1       0.2005
     33 H2         18.9090   20.9634   35.2676 H           1 UI1       0.2005
     34 H3         17.8668   19.7700   35.7896 H           1 UI1       0.2005
     35 H4         18.4324   20.4670   32.9853 H           1 UI1       0.0950
     36 H5         17.2722   19.2528   33.5234 H           1 UI1       0.0950
     37 H6         20.8862   20.1664   33.5940 H           1 UI1       0.0522
     38 H7         22.6920   18.5851   33.7031 H           1 UI1       0.0488
     39 H8         22.5638   15.4814   34.9118 H           1 UI1       0.2231
     40 H9         23.5943   13.3170   31.7944 H           1 UI1       0.0523
     41 H10        25.8995   11.1360   31.3402 H           1 UI1       0.2211
     42 H11        23.1567    8.0527   29.7450 H           1 UI1       0.0903
     43 H12        21.0000    8.4108   30.8571 H           1 UI1       0.0673
     44 H13        20.8610   10.2014   32.5298 H           1 UI1       0.0903
     45 H14        27.2230   10.7024   33.3948 H           1 UI1       0.0632
     46 H15        28.8197   12.9941   36.5590 H           1 UI1       0.0617
     47 H16        27.1768   14.6595   36.1891 H           1 UI1       0.0609
     48 H17        25.2533   15.5255   34.9536 H           1 UI1       0.0557
     49 H18        30.0194    9.0529   34.6145 H           1 UI1       0.3181
     50 H19        28.8516    9.6060   33.6501 H           1 UI1       0.3181
     51 H20        29.8656   11.3269   36.9074 H           1 UI1       0.3181
     52 H21        30.5702    9.9828   36.3628 H           1 UI1       0.3181
     53 H22        19.9153   15.4501   34.2043 H           1 UI1       0.0488
     54 H23        18.1095   17.0283   34.1010 H           1 UI1       0.0522
@<TRIPOS>BOND
     1     1     2   1
     2     2     3   1
     3     3     4  ar
     4     3    31  ar
     5     4     5  ar
     6     5     6  ar
     7     6     7   1
     8     6    30  ar
     9     7     8  am
    10     8     9   2
    11     8    10   1
    12    10    11  ar
    13    10    26  ar
    14    11    12  ar
    15    12    13   1
    16    12    20  ar
    17    13    14   1
    18    14    15  ar
    19    14    19  ar
    20    15    16  ar
    21    16    17  ar
    22    17    18  ar
    23    18    19  ar
    24    20    21  ar
    25    20    25  ar
    26    21    22  ar
    27    22    23  ar
    28    22    27   1
    29    23    24  ar
    30    24    25  ar
    31    25    26  ar
    32    27    28  ar
    33    27    29  ar
    34    30    31  ar
    35     1    32   1
    36     1    33   1
    37     1    34   1
    38     2    35   1
    39     2    36   1
    40     4    37   1
    41     5    38   1
    42     7    39   1
    43    11    40   1
    44    13    41   1
    45    16    42   1
    46    17    43   1
    47    18    44   1
    48    21    45   1
    49    23    46   1
    50    24    47   1
    51    26    48   1
    52    28    49   1
    53    28    50   1
    54    29    51   1
    55    29    52   1
    56    30    53   1
    57    31    54   1
@<TRIPOS>SUBSTRUCTURE
     1  UI1      2

