@<TRIPOS>MOLECULE
1sqa_ligand_010
    54    57
SMALL
GAST_HUCK
****
This file was generated by PARSER (from files_GN.cpp)

@<TRIPOS>ATOM
      1 N1         16.6035   19.5157   33.5193 N.4         1 UI1       0.2289
      2 C2         17.9485   20.1035   33.5684 C.3         1 UI1      -0.0082
      3 C3         19.0737   19.2286   33.1286 C.ar        1 UI1      -0.0133
      4 C4         20.3885   19.6132   33.4781 C.ar        1 UI1      -0.0682
      5 C5         21.4948   18.8186   33.1300 C.ar        1 UI1      -0.0471
      6 C6         21.3142   17.6390   32.3818 C.ar        1 UI1       0.0594
      7 N7         22.3784   16.8499   32.0860 N.am        1 UI1      -0.2371
      8 C8         23.2974   17.1104   31.1670 C.2         1 UI1       0.2269
      9 O9         23.2344   18.0857   30.4263 O.2         1 UI1      -0.3740
     10 C10        24.3378   16.2222   31.0115 C.ar        1 UI1       0.0420
     11 C11        25.3989   16.2066   31.9394 C.ar        1 UI1      -0.0212
     12 C12        26.4730   15.3034   31.7994 C.ar        1 UI1       0.0814
     13 N13        27.4859   15.3902   32.7043 N.pl3       1 UI1      -0.2366
     14 C14        27.6209   14.5954   33.7894 C.ar        1 UI1       0.2162
     15 N15        28.6824   14.8084   34.6078 N.ar        1 UI1      -0.2483
     16 C16        28.8916   14.0629   35.7211 C.ar        1 UI1       0.0160
     17 C17        27.9872   13.0400   36.0553 C.ar        1 UI1      -0.0217
     18 C18        26.8960   12.8244   35.1959 C.ar        1 UI1       0.0160
     19 N19        26.7421   13.6015   34.0945 N.ar        1 UI1      -0.2483
     20 C20        26.4892   14.3761   30.7178 C.ar        1 UI1       0.0152
     21 C21        27.5449   13.4492   30.5268 C.ar        1 UI1      -0.0470
     22 C22        27.5581   12.5139   29.4555 C.ar        1 UI1       0.0254
     23 C23        26.4548   12.5470   28.5648 C.ar        1 UI1      -0.0575
     24 C24        25.4065   13.4653   28.7253 C.ar        1 UI1      -0.0567
     25 C25        25.4091   14.3854   29.7929 C.ar        1 UI1      -0.0208
     26 C26        24.3489   15.3071   29.9376 C.ar        1 UI1      -0.0476
     27 C27        28.6111   11.5948   29.2801 C.cat       1 UI1       0.2346
     28 N28        29.5286   11.4200   30.1526 N.pl3       1 UI1      -0.2724
     29 N29        28.7283   10.8674   28.2347 N.pl3       1 UI1      -0.2724
     30 C30        20.0097   17.2472   32.0149 C.ar        1 UI1      -0.0471
     31 C31        18.9016   18.0411   32.3728 C.ar        1 UI1      -0.0682
     32 H1         15.9379   20.1733   33.9356 H           1 UI1       0.2005
     33 H2         16.5892   18.6449   34.0579 H           1 UI1       0.2005
     34 H3         16.3406   19.3188   32.5502 H           1 UI1       0.2005
     35 H4         18.1123   20.3913   34.6069 H           1 UI1       0.0950
     36 H5         17.9478   21.0099   32.9613 H           1 UI1       0.0950
     37 H6         20.5504   20.4630   34.0138 H           1 UI1       0.0522
     38 H7         22.4311   19.0995   33.4292 H           1 UI1       0.0488
     39 H8         22.4634   16.0145   32.5747 H           1 UI1       0.2231
     40 H9         25.3932   16.8632   32.7265 H           1 UI1       0.0523
     41 H10        28.1374   16.0998   32.5802 H           1 UI1       0.2211
     42 H11        29.7035   14.2494   36.3121 H           1 UI1       0.0903
     43 H12        28.1204   12.4709   36.8942 H           1 UI1       0.0673
     44 H13        26.2176   12.0880   35.3969 H           1 UI1       0.0903
     45 H14        28.3247   13.4615   31.1853 H           1 UI1       0.0632
     46 H15        26.3882   11.8932   27.7821 H           1 UI1       0.0617
     47 H16        24.6351   13.4571   28.0535 H           1 UI1       0.0609
     48 H17        23.5732   15.3019   29.2685 H           1 UI1       0.0557
     49 H18        30.2119   10.7977   29.9989 H           1 UI1       0.3181
     50 H19        29.5257   11.9029   30.9528 H           1 UI1       0.3181
     51 H20        28.1066   10.9364   27.5408 H           1 UI1       0.3181
     52 H21        29.4383   10.2569   28.1532 H           1 UI1       0.3181
     53 H22        19.8687   16.3871   31.4730 H           1 UI1       0.0488
     54 H23        17.9703   17.7366   32.0796 H           1 UI1       0.0522
@<TRIPOS>BOND
     1     1     2   1
     2     2     3   1
     3     3     4  ar
     4     3    31  ar
     5     4     5  ar
     6     5     6  ar
     7     6     7   1
     8     6    30  ar
     9     7     8  am
    10     8     9   2
    11     8    10   1
    12    10    11  ar
    13    10    26  ar
    14    11    12  ar
    15    12    13   1
    16    12    20  ar
    17    13    14   1
    18    14    15  ar
    19    14    19  ar
    20    15    16  ar
    21    16    17  ar
    22    17    18  ar
    23    18    19  ar
    24    20    21  ar
    25    20    25  ar
    26    21    22  ar
    27    22    23  ar
    28    22    27   1
    29    23    24  ar
    30    24    25  ar
    31    25    26  ar
    32    27    28  ar
    33    27    29  ar
    34    30    31  ar
    35     1    32   1
    36     1    33   1
    37     1    34   1
    38     2    35   1
    39     2    36   1
    40     4    37   1
    41     5    38   1
    42     7    39   1
    43    11    40   1
    44    13    41   1
    45    16    42   1
    46    17    43   1
    47    18    44   1
    48    21    45   1
    49    23    46   1
    50    24    47   1
    51    26    48   1
    52    28    49   1
    53    28    50   1
    54    29    51   1
    55    29    52   1
    56    30    53   1
    57    31    54   1
@<TRIPOS>SUBSTRUCTURE
     1  UI1      2

