@<TRIPOS>MOLECULE
1sqa_ligand_025
    54    57
SMALL
GAST_HUCK
****
This file was generated by PARSER (from files_GN.cpp)

@<TRIPOS>ATOM
      1 N1         17.1197   20.3196   34.3527 N.4         1 UI1       0.2289
      2 C2         17.6099   19.4546   33.2723 C.3         1 UI1      -0.0082
      3 C3         18.9104   18.8313   33.6352 C.ar        1 UI1      -0.0133
      4 C4         19.0336   17.4309   33.8010 C.ar        1 UI1      -0.0682
      5 C5         20.2726   16.8568   34.1382 C.ar        1 UI1      -0.0471
      6 C6         21.4224   17.6628   34.3002 C.ar        1 UI1       0.0594
      7 N7         22.6547   17.1563   34.6216 N.am        1 UI1      -0.2371
      8 C8         23.2346   16.0449   34.1615 C.2         1 UI1       0.2269
      9 O9         22.6739   15.4293   33.2661 O.2         1 UI1      -0.3740
     10 C10        24.4756   15.5812   34.6422 C.ar        1 UI1       0.0420
     11 C11        25.0250   14.3582   34.1694 C.ar        1 UI1      -0.0212
     12 C12        26.2248   13.8239   34.6848 C.ar        1 UI1       0.0814
     13 N13        26.6388   12.6129   34.2199 N.pl3       1 UI1      -0.2366
     14 C14        27.1891   12.3957   33.0026 C.ar        1 UI1       0.2162
     15 N15        27.5368   11.1225   32.6824 N.ar        1 UI1      -0.2483
     16 C16        28.1071   10.8085   31.4919 C.ar        1 UI1       0.0160
     17 C17        28.3669   11.8219   30.5545 C.ar        1 UI1      -0.0217
     18 C18        28.0087   13.1374   30.8972 C.ar        1 UI1       0.0160
     19 N19        27.4308   13.3880   32.0998 N.ar        1 UI1      -0.2483
     20 C20        26.9125   14.5057   35.7200 C.ar        1 UI1       0.0152
     21 C21        28.0843   13.9837   36.3244 C.ar        1 UI1      -0.0470
     22 C22        28.7835   14.6688   37.3537 C.ar        1 UI1       0.0254
     23 C23        28.2627   15.9246   37.7530 C.ar        1 UI1      -0.0575
     24 C24        27.1025   16.4604   37.1788 C.ar        1 UI1      -0.0567
     25 C25        26.4127   15.7578   36.1696 C.ar        1 UI1      -0.0208
     26 C26        25.2118   16.2782   35.6282 C.ar        1 UI1      -0.0476
     27 C27        29.9369   14.1267   37.9586 C.cat       1 UI1       0.2346
     28 N28        30.4847   13.0406   37.5704 N.pl3       1 UI1      -0.2724
     29 N29        30.5241   14.6802   38.9518 N.pl3       1 UI1      -0.2724
     30 C30        21.2917   19.0598   34.1665 C.ar        1 UI1      -0.0471
     31 C31        20.0543   19.6380   33.8271 C.ar        1 UI1      -0.0682
     32 H1         16.2077   20.7109   34.1047 H           1 UI1       0.2005
     33 H2         17.7802   21.0854   34.5110 H           1 UI1       0.2005
     34 H3         17.0169   19.7771   35.2160 H           1 UI1       0.2005
     35 H4         17.7373   20.0506   32.3676 H           1 UI1       0.0950
     36 H5         16.8445   18.7029   33.0764 H           1 UI1       0.0950
     37 H6         18.2208   16.8222   33.6826 H           1 UI1       0.0522
     38 H7         20.3260   15.8435   34.2673 H           1 UI1       0.0488
     39 H8         23.1928   17.7124   35.1972 H           1 UI1       0.2231
     40 H9         24.5216   13.8150   33.4662 H           1 UI1       0.0523
     41 H10        26.5988   11.8605   34.8315 H           1 UI1       0.2211
     42 H11        28.3480    9.8373   31.2858 H           1 UI1       0.0903
     43 H12        28.7980   11.6085   29.6530 H           1 UI1       0.0673
     44 H13        28.1860   13.9066   30.2486 H           1 UI1       0.0903
     45 H14        28.4295   13.0754   36.0044 H           1 UI1       0.0632
     46 H15        28.7212   16.4763   38.4792 H           1 UI1       0.0617
     47 H16        26.7616   17.3680   37.5049 H           1 UI1       0.0609
     48 H17        24.8643   17.1700   35.9955 H           1 UI1       0.0557
     49 H18        31.2497   12.7208   38.0045 H           1 UI1       0.3181
     50 H19        30.1348   12.5569   36.8528 H           1 UI1       0.3181
     51 H20        30.1995   15.4747   39.3156 H           1 UI1       0.3181
     52 H21        31.2868   14.2872   39.3219 H           1 UI1       0.3181
     53 H22        22.1042   19.6706   34.3019 H           1 UI1       0.0488
     54 H23        19.9977   20.6535   33.7120 H           1 UI1       0.0522
@<TRIPOS>BOND
     1     1     2   1
     2     2     3   1
     3     3     4  ar
     4     3    31  ar
     5     4     5  ar
     6     5     6  ar
     7     6     7   1
     8     6    30  ar
     9     7     8  am
    10     8     9   2
    11     8    10   1
    12    10    11  ar
    13    10    26  ar
    14    11    12  ar
    15    12    13   1
    16    12    20  ar
    17    13    14   1
    18    14    15  ar
    19    14    19  ar
    20    15    16  ar
    21    16    17  ar
    22    17    18  ar
    23    18    19  ar
    24    20    21  ar
    25    20    25  ar
    26    21    22  ar
    27    22    23  ar
    28    22    27   1
    29    23    24  ar
    30    24    25  ar
    31    25    26  ar
    32    27    28  ar
    33    27    29  ar
    34    30    31  ar
    35     1    32   1
    36     1    33   1
    37     1    34   1
    38     2    35   1
    39     2    36   1
    40     4    37   1
    41     5    38   1
    42     7    39   1
    43    11    40   1
    44    13    41   1
    45    16    42   1
    46    17    43   1
    47    18    44   1
    48    21    45   1
    49    23    46   1
    50    24    47   1
    51    26    48   1
    52    28    49   1
    53    28    50   1
    54    29    51   1
    55    29    52   1
    56    30    53   1
    57    31    54   1
@<TRIPOS>SUBSTRUCTURE
     1  UI1      2

