@<TRIPOS>MOLECULE
1u1b_ligand_036
    74    78
SMALL
GAST_HUCK
****
This file was generated by PARSER (from files_GN.cpp)

@<TRIPOS>ATOM
      1 PA        -29.6167  -31.1958   13.2805 P.3         1 PAX       0.2972
      2 O1A       -29.9290  -30.0872   14.1577 O.co2       1 PAX      -0.6127
      3 O2A       -28.4999  -30.8844   12.4135 O.co2       1 PAX      -0.6127
      4 O5        -29.2782  -32.3733   14.2427 O.3         1 PAX      -0.2476
      5 PB        -31.5572  -30.5542   11.5559 P.3         1 PAX       0.2974
      6 O1B       -31.5053  -30.9811   10.1785 O.co2       1 PAX      -0.6127
      7 O2B       -32.9545  -30.6552   11.9061 O.co2       1 PAX      -0.6127
      8 O3A       -30.8942  -31.6262   12.4868 O.3         1 PAX      -0.1319
      9 PG        -30.9569  -32.2726   18.3501 P.3         1 PAX       0.2013
     10 O1G       -31.4889  -31.5953   17.1904 O.co2       1 PAX      -0.5537
     11 O2G       -31.9389  -33.2375   18.7839 O.co2       1 PAX      -0.5537
     12 O3G       -30.7488  -31.3432   19.4302 O.co2       1 PAX      -0.5537
     13 N9A       -25.1822  -33.5663   18.2482 N.pl3       1 PAX      -0.1919
     14 C4A       -24.1817  -33.0122   17.5330 C.ar        1 PAX       0.1613
     15 N3A       -24.2008  -32.2741   16.3921 N.ar        1 PAX      -0.2714
     16 C2A       -23.0215  -31.8706   15.8385 C.ar        1 PAX       0.0533
     17 N1A       -21.8291  -32.2168   16.4115 N.ar        1 PAX      -0.2698
     18 C6A       -21.7694  -32.9604   17.5509 C.ar        1 PAX       0.1298
     19 N6A       -20.5772  -33.2993   18.0608 N.pl3       1 PAX      -0.3152
     20 C5A       -22.9778  -33.3741   18.1405 C.ar        1 PAX       0.1045
     21 N7A       -23.2495  -34.1175   19.2249 N.2         1 PAX      -0.2958
     22 C8A       -24.5925  -34.2313   19.2684 C.2         1 PAX       0.1123
     23 C5        -27.9677  -32.3979   14.8542 C.3         1 PAX       0.1131
     24 C4        -28.0657  -33.1848   16.1880 C.3         1 PAX       0.1235
     25 O4        -26.7814  -33.7180   16.5296 O.3         1 PAX      -0.3360
     26 C1        -26.5899  -33.5508   17.9395 C.3         1 PAX       0.2013
     27 C2        -27.3171  -32.2361   18.2727 C.3         1 PAX       0.1432
     28 O2        -27.6478  -32.1046   19.6558 O.3         1 PAX      -0.3832
     29 C3        -28.5660  -32.3246   17.3805 C.3         1 PAX       0.1487
     30 O3        -29.6365  -33.0374   18.0495 O.3         1 PAX      -0.2674
     31 O5        -29.3174  -26.5848    8.4420 O.3         1 PAX      -0.2734
     32 C5        -29.5186  -28.0244    8.5127 C.3         1 PAX       0.1074
     33 C4        -29.4841  -28.5082    9.9911 C.3         1 PAX       0.1209
     34 O4        -28.3418  -27.8923   10.6141 O.3         1 PAX      -0.3391
     35 C1        -28.7490  -27.3348   11.8754 C.3         1 PAX       0.1760
     36 C2        -30.2136  -26.9200   11.5951 C.3         1 PAX       0.0362
     37 C3        -30.7462  -28.1370   10.8274 C.3         1 PAX       0.1284
     38 O3        -31.1426  -29.0761   11.8494 O.3         1 PAX      -0.2441
     39 PD        -29.1573  -25.9896    7.0047 P.3         1 PAX       0.2008
     40 O1D       -28.0349  -26.5769    6.3191 O.co2       1 PAX      -0.5537
     41 O2D       -28.8776  -24.5839    7.1435 O.co2       1 PAX      -0.5537
     42 O3D       -30.3501  -26.1267    6.2052 O.co2       1 PAX      -0.5537
     43 N1T       -27.7521  -26.3879   12.3542 N.am        1 PAX      -0.1736
     44 C6T       -28.0733  -25.1264   12.7767 C.2         1 PAX       0.0524
     45 C2T       -26.4696  -26.7944   12.4882 C.2         1 PAX       0.3265
     46 O2T       -26.0699  -27.9157   12.1899 O.2         1 PAX      -0.3843
     47 N3T       -25.5518  -25.9759   12.9888 N.am        1 PAX      -0.1859
     48 C4T       -25.8609  -24.7480   13.3937 C.2         1 PAX       0.1930
     49 O4T       -24.9554  -24.0854   13.8792 O.2         1 PAX      -0.4079
     50 C5T       -27.1536  -24.2841   13.3052 C.2         1 PAX       0.0225
     51 CM5       -27.5025  -22.9524   13.7954 C.3         1 PAX      -0.0437
     52 H1        -23.0302  -31.3119   14.9784 H           1 PAX       0.0996
     53 H2        -20.5212  -33.8377   18.8625 H           1 PAX       0.1820
     54 H3        -19.7669  -33.0069   17.6213 H           1 PAX       0.1820
     55 H4        -25.0879  -34.7796   19.9782 H           1 PAX       0.1349
     56 H5        -27.5524  -31.3996   15.0492 H           1 PAX       0.0648
     57 H6        -27.2884  -32.9102   14.1650 H           1 PAX       0.0648
     58 H7        -28.7267  -34.0412   16.0296 H           1 PAX       0.0654
     59 H8        -27.0888  -34.3798   18.4616 H           1 PAX       0.0996
     60 H9        -26.7023  -31.3805   17.9717 H           1 PAX       0.0680
     61 H10       -26.8043  -31.9495   20.1330 H           1 PAX       0.2101
     62 H11       -28.8389  -31.3135   17.0677 H           1 PAX       0.0704
     63 H12       -28.7109  -28.5464    7.9776 H           1 PAX       0.0639
     64 H13       -30.4743  -28.3176    8.0534 H           1 PAX       0.0639
     65 H14       -29.3281  -29.5912    9.9826 H           1 PAX       0.0653
     66 H15       -28.7754  -28.1358   12.6270 H           1 PAX       0.0959
     67 H16       -30.2629  -26.0216   10.9790 H           1 PAX       0.0348
     68 H17       -30.7638  -26.7362   12.5193 H           1 PAX       0.0348
     69 H18       -31.6106  -27.8726   10.2129 H           1 PAX       0.0686
     70 H19       -29.0157  -24.8226   12.7268 H           1 PAX       0.1011
     71 H20       -24.6367  -26.2931   13.0851 H           1 PAX       0.2259
     72 H21       -28.5621  -22.7230   13.6729 H           1 PAX       0.0296
     73 H22       -26.9310  -22.1954   13.2542 H           1 PAX       0.0296
     74 H23       -27.2650  -22.8753   14.8587 H           1 PAX       0.0296
@<TRIPOS>BOND
     1     1     2  ar
     2     1     3  ar
     3     1     4   1
     4     8     1   1
     5     4    23   1
     6     5     6  ar
     7     5     7  ar
     8     5     8   1
     9    38     5   1
    10     9    10  ar
    11     9    11  ar
    12     9    12  ar
    13    30     9   1
    14    13    14   1
    15    13    22   1
    16    26    13   1
    17    14    15  ar
    18    14    20  ar
    19    15    16  ar
    20    16    17  ar
    21    18    17  ar
    22    18    19   1
    23    20    18  ar
    24    21    20   1
    25    22    21   2
    26    23    24   1
    27    24    25   1
    28    24    29   1
    29    25    26   1
    30    27    26   1
    31    27    28   1
    32    29    27   1
    33    29    30   1
    34    32    31   1
    35    31    39   1
    36    33    32   1
    37    33    34   1
    38    37    33   1
    39    35    34   1
    40    36    35   1
    41    35    43   1
    42    37    36   1
    43    37    38   1
    44    39    40  ar
    45    39    41  ar
    46    39    42  ar
    47    43    44   1
    48    43    45  am
    49    44    50   2
    50    45    46   2
    51    45    47  am
    52    47    48  am
    53    48    49   2
    54    48    50   1
    55    50    51   1
    56    16    52   1
    57    19    53   1
    58    19    54   1
    59    22    55   1
    60    23    56   1
    61    23    57   1
    62    24    58   1
    63    26    59   1
    64    27    60   1
    65    28    61   1
    66    29    62   1
    67    32    63   1
    68    32    64   1
    69    33    65   1
    70    35    66   1
    71    36    67   1
    72    36    68   1
    73    37    69   1
    74    44    70   1
    75    47    71   1
    76    51    72   1
    77    51    73   1
    78    51    74   1
@<TRIPOS>SUBSTRUCTURE
     1  PAX     14

