@<TRIPOS>MOLECULE
1u1b_ligand_058
    74    78
SMALL
GAST_HUCK
****
This file was generated by PARSER (from files_GN.cpp)

@<TRIPOS>ATOM
      1 PA        -25.6299  -32.0499   15.1034 P.3         1 PAX       0.2972
      2 O1A       -26.8209  -31.5673   14.4406 O.co2       1 PAX      -0.6127
      3 O2A       -24.5949  -31.0742   14.8456 O.co2       1 PAX      -0.6127
      4 O5        -25.9759  -32.2502   16.6026 O.3         1 PAX      -0.2476
      5 PB        -24.0798  -34.1952   14.7508 P.3         1 PAX       0.2974
      6 O1B       -22.9805  -33.4483   14.1698 O.co2       1 PAX      -0.6127
      7 O2B       -23.7592  -34.3809   16.1550 O.co2       1 PAX      -0.6127
      8 O3A       -25.3832  -33.4166   14.4103 O.3         1 PAX      -0.1319
      9 PG        -28.5243  -34.4155   17.0218 P.3         1 PAX       0.2013
     10 O1G       -28.7167  -33.8477   15.7128 O.co2       1 PAX      -0.5537
     11 O2G       -27.2256  -35.0451   17.1327 O.co2       1 PAX      -0.5537
     12 O3G       -29.4956  -35.4824   17.1102 O.co2       1 PAX      -0.5537
     13 N9A       -29.3767  -29.3233   20.5152 N.pl3       1 PAX      -0.1919
     14 C4A       -30.3107  -28.4600   20.0592 C.ar        1 PAX       0.1613
     15 N3A       -30.9864  -28.3782   18.8804 N.ar        1 PAX      -0.2714
     16 C2A       -31.9311  -27.4213   18.6771 C.ar        1 PAX       0.0533
     17 N1A       -32.2215  -26.5338   19.6680 N.ar        1 PAX      -0.2698
     18 C6A       -31.5762  -26.5642   20.8646 C.ar        1 PAX       0.1298
     19 N6A       -31.9198  -25.6797   21.8111 N.pl3       1 PAX      -0.3152
     20 C5A       -30.5852  -27.5426   21.0742 C.ar        1 PAX       0.1045
     21 N7A       -29.7971  -27.8196   22.1212 N.2         1 PAX      -0.2958
     22 C8A       -29.0635  -28.8895   21.7591 C.2         1 PAX       0.1123
     23 C5        -26.3186  -31.0871   17.3774 C.3         1 PAX       0.1131
     24 C4        -27.2881  -31.4800   18.5167 C.3         1 PAX       0.1235
     25 O4        -27.5833  -30.3035   19.2928 O.3         1 PAX      -0.3360
     26 C1        -28.8413  -30.5363   19.9326 C.3         1 PAX       0.2013
     27 C2        -29.6844  -31.2621   18.8623 C.3         1 PAX       0.1432
     28 O2        -30.7217  -32.0501   19.4459 O.3         1 PAX      -0.3832
     29 C3        -28.6536  -32.0357   18.0134 C.3         1 PAX       0.1487
     30 O3        -28.8517  -33.4578   18.2030 O.3         1 PAX      -0.2674
     31 O5        -27.9738  -37.8730   13.5748 O.3         1 PAX      -0.2734
     32 C5        -27.3290  -37.0996   14.6108 C.3         1 PAX       0.1074
     33 C4        -25.7819  -37.1680   14.5135 C.3         1 PAX       0.1209
     34 O4        -25.4080  -38.5165   14.1681 O.3         1 PAX      -0.3391
     35 C1        -24.5027  -38.4862   13.0568 C.3         1 PAX       0.1760
     36 C2        -24.7178  -37.1368   12.3464 C.3         1 PAX       0.0362
     37 C3        -25.1386  -36.1981   13.4817 C.3         1 PAX       0.1284
     38 O3        -23.9458  -35.5434   13.9778 O.3         1 PAX      -0.2441
     39 PD        -28.7530  -37.1345   12.4553 P.3         1 PAX       0.2008
     40 O1D       -29.3534  -38.1406   11.6096 O.co2       1 PAX      -0.5537
     41 O2D       -27.8992  -36.3198   11.6219 O.co2       1 PAX      -0.5537
     42 O3D       -29.8351  -36.3449   12.9934 O.co2       1 PAX      -0.5537
     43 N1T       -24.6886  -39.6341   12.1764 N.am        1 PAX      -0.1736
     44 C6T       -25.9139  -39.8722   11.6078 C.2         1 PAX       0.0524
     45 C2T       -23.6796  -40.4733   11.8689 C.2         1 PAX       0.3265
     46 O2T       -22.5520  -40.3799   12.3332 O.2         1 PAX      -0.3843
     47 N3T       -23.8792  -41.4799   11.0236 N.am        1 PAX      -0.1859
     48 C4T       -25.0602  -41.6921   10.4531 C.2         1 PAX       0.1930
     49 O4T       -25.1425  -42.6389    9.6822 O.2         1 PAX      -0.4079
     50 C5T       -26.1316  -40.8785   10.7340 C.2         1 PAX       0.0225
     51 CM5       -27.4344  -41.0929   10.1049 C.3         1 PAX      -0.0437
     52 H1        -32.4317  -27.3831   17.7843 H           1 PAX       0.0996
     53 H2        -31.4815  -25.6932   22.6718 H           1 PAX       0.1820
     54 H3        -32.6280  -25.0436   21.6343 H           1 PAX       0.1820
     55 H4        -28.3879  -29.3364   22.3863 H           1 PAX       0.1349
     56 H5        -26.8171  -30.3153   16.7866 H           1 PAX       0.0648
     57 H6        -25.4092  -30.6603   17.8020 H           1 PAX       0.0648
     58 H7        -26.8044  -32.2112   19.1730 H           1 PAX       0.0654
     59 H8        -28.6676  -31.2462   20.7504 H           1 PAX       0.0996
     60 H9        -30.1664  -30.5538   18.1954 H           1 PAX       0.0680
     61 H10       -30.3139  -32.5316   20.1942 H           1 PAX       0.2101
     62 H11       -28.8173  -31.7533   16.9640 H           1 PAX       0.0704
     63 H12       -27.6251  -37.5482   15.5624 H           1 PAX       0.0639
     64 H13       -27.6377  -36.0550   14.6419 H           1 PAX       0.0639
     65 H14       -25.3785  -36.9440   15.5043 H           1 PAX       0.0653
     66 H15       -23.4998  -38.4636   13.4937 H           1 PAX       0.0959
     67 H16       -25.5216  -37.1984   11.6072 H           1 PAX       0.0348
     68 H17       -23.8083  -36.8081   11.8381 H           1 PAX       0.0348
     69 H18       -25.8575  -35.4787   13.0741 H           1 PAX       0.0686
     70 H19       -26.6705  -39.2729   11.8328 H           1 PAX       0.1011
     71 H20       -23.1384  -42.0728   10.8134 H           1 PAX       0.2259
     72 H21       -28.1839  -40.3656   10.4246 H           1 PAX       0.0296
     73 H22       -27.8074  -42.0881   10.3536 H           1 PAX       0.0296
     74 H23       -27.3367  -41.0162    9.0204 H           1 PAX       0.0296
@<TRIPOS>BOND
     1     1     2  ar
     2     1     3  ar
     3     1     4   1
     4     8     1   1
     5     4    23   1
     6     5     6  ar
     7     5     7  ar
     8     5     8   1
     9    38     5   1
    10     9    10  ar
    11     9    11  ar
    12     9    12  ar
    13    30     9   1
    14    13    14   1
    15    13    22   1
    16    26    13   1
    17    14    15  ar
    18    14    20  ar
    19    15    16  ar
    20    16    17  ar
    21    18    17  ar
    22    18    19   1
    23    20    18  ar
    24    21    20   1
    25    22    21   2
    26    23    24   1
    27    24    25   1
    28    24    29   1
    29    25    26   1
    30    27    26   1
    31    27    28   1
    32    29    27   1
    33    29    30   1
    34    32    31   1
    35    31    39   1
    36    33    32   1
    37    33    34   1
    38    37    33   1
    39    35    34   1
    40    36    35   1
    41    35    43   1
    42    37    36   1
    43    37    38   1
    44    39    40  ar
    45    39    41  ar
    46    39    42  ar
    47    43    44   1
    48    43    45  am
    49    44    50   2
    50    45    46   2
    51    45    47  am
    52    47    48  am
    53    48    49   2
    54    48    50   1
    55    50    51   1
    56    16    52   1
    57    19    53   1
    58    19    54   1
    59    22    55   1
    60    23    56   1
    61    23    57   1
    62    24    58   1
    63    26    59   1
    64    27    60   1
    65    28    61   1
    66    29    62   1
    67    32    63   1
    68    32    64   1
    69    33    65   1
    70    35    66   1
    71    36    67   1
    72    36    68   1
    73    37    69   1
    74    44    70   1
    75    47    71   1
    76    51    72   1
    77    51    73   1
    78    51    74   1
@<TRIPOS>SUBSTRUCTURE
     1  PAX     14

