@<TRIPOS>MOLECULE
1u1b_ligand_089
    74    78
SMALL
GAST_HUCK
****
This file was generated by PARSER (from files_GN.cpp)

@<TRIPOS>ATOM
      1 PA        -33.1851  -26.8822   18.6453 P.3         1 PAX       0.2972
      2 O1A       -33.2321  -26.7285   17.2118 O.co2       1 PAX      -0.6127
      3 O2A       -34.4524  -27.4660   19.0044 O.co2       1 PAX      -0.6127
      4 O5        -32.1763  -27.9896   19.0753 O.3         1 PAX      -0.2476
      5 PB        -32.6981  -24.2875   18.8680 P.3         1 PAX       0.2974
      6 O1B       -33.8072  -23.8579   18.0514 O.co2       1 PAX      -0.6127
      7 O2B       -32.5059  -23.3138   19.9188 O.co2       1 PAX      -0.6127
      8 O3A       -33.0503  -25.6282   19.5731 O.3         1 PAX      -0.1319
      9 PG        -31.3387  -28.7255   14.1488 P.3         1 PAX       0.2013
     10 O1G       -32.3831  -27.7245   14.1061 O.co2       1 PAX      -0.5537
     11 O2G       -30.5782  -28.6035   12.9292 O.co2       1 PAX      -0.5537
     12 O3G       -31.9358  -30.0423   14.1580 O.co2       1 PAX      -0.5537
     13 N9A       -28.0886  -31.0200   18.0822 N.pl3       1 PAX      -0.1919
     14 C4A       -27.1187  -31.8339   17.6247 C.ar        1 PAX       0.1613
     15 N3A       -26.4558  -31.8706   16.4381 N.ar        1 PAX      -0.2714
     16 C2A       -25.5337  -32.8442   16.2086 C.ar        1 PAX       0.0533
     17 N1A       -25.2929  -33.7944   17.1525 N.ar        1 PAX      -0.2698
     18 C6A       -25.9369  -33.8024   18.3517 C.ar        1 PAX       0.1298
     19 N6A       -25.6894  -34.7864   19.2284 N.pl3       1 PAX      -0.3152
     20 C5A       -26.8729  -32.7876   18.6120 C.ar        1 PAX       0.1045
     21 N7A       -27.6704  -32.5312   19.6594 N.2         1 PAX      -0.2958
     22 C8A       -28.3974  -31.4483   19.3276 C.2         1 PAX       0.1123
     23 C5        -30.7594  -27.7237   19.0407 C.3         1 PAX       0.1131
     24 C4        -30.0087  -28.0300   17.7042 C.3         1 PAX       0.1235
     25 O4        -28.7786  -28.7124   18.0448 O.3         1 PAX      -0.3360
     26 C1        -28.7459  -29.9705   17.3447 C.3         1 PAX       0.2013
     27 C2        -30.2165  -30.3090   17.0271 C.3         1 PAX       0.1432
     28 O2        -30.3411  -31.2714   15.9819 O.3         1 PAX      -0.3832
     29 C3        -30.7681  -28.9181   16.6758 C.3         1 PAX       0.1487
     30 O3        -30.3601  -28.5044   15.3402 O.3         1 PAX      -0.2674
     31 O5        -32.4450  -21.5010   14.3052 O.3         1 PAX      -0.2734
     32 C5        -32.6082  -22.1124   15.6094 C.3         1 PAX       0.1074
     33 C4        -31.6417  -23.3219   15.8307 C.3         1 PAX       0.1209
     34 O4        -30.5983  -23.3540   14.8421 O.3         1 PAX      -0.3391
     35 C1        -29.5573  -24.1830   15.3834 C.3         1 PAX       0.1760
     36 C2        -29.4553  -23.7236   16.8513 C.3         1 PAX       0.0362
     37 C3        -30.9188  -23.3919   17.2157 C.3         1 PAX       0.1284
     38 O3        -31.3796  -24.4653   18.0634 O.3         1 PAX      -0.2441
     39 PD        -31.4488  -20.2994   14.1849 P.3         1 PAX       0.2008
     40 O1D       -30.1776  -20.5604   14.8118 O.co2       1 PAX      -0.5537
     41 O2D       -32.0055  -19.0885   14.7468 O.co2       1 PAX      -0.5537
     42 O3D       -31.1621  -20.0384   12.7969 O.co2       1 PAX      -0.5537
     43 N1T       -28.3415  -24.0807   14.5848 N.am        1 PAX      -0.1736
     44 C6T       -27.8864  -25.1734   13.8930 C.2         1 PAX       0.0524
     45 C2T       -27.6806  -22.9137   14.4325 C.2         1 PAX       0.3265
     46 O2T       -28.0179  -21.8769   14.9916 O.2         1 PAX      -0.3843
     47 N3T       -26.6314  -22.8340   13.6196 N.am        1 PAX      -0.1859
     48 C4T       -26.2150  -23.8871   12.9182 C.2         1 PAX       0.1930
     49 O4T       -25.2623  -23.7102   12.1746 O.2         1 PAX      -0.4079
     50 C5T       -26.8447  -25.1076   13.0321 C.2         1 PAX       0.0225
     51 CM5       -26.4682  -26.2892   12.2584 C.3         1 PAX      -0.0437
     52 H1        -25.0352  -32.8716   15.3224 H           1 PAX       0.0996
     53 H2        -26.1445  -34.8125   20.0830 H           1 PAX       0.1820
     54 H3        -25.0813  -35.5033   18.9904 H           1 PAX       0.1820
     55 H4        -29.1087  -31.0357   19.9343 H           1 PAX       0.1349
     56 H5        -30.3576  -28.3880   19.8124 H           1 PAX       0.0648
     57 H6        -30.5230  -26.7045   19.3724 H           1 PAX       0.0648
     58 H7        -29.7503  -27.0719   17.2428 H           1 PAX       0.0654
     59 H8        -28.2145  -29.8030   16.3978 H           1 PAX       0.0996
     60 H9        -30.7223  -30.6897   17.9241 H           1 PAX       0.0680
     61 H10       -31.3043  -31.3987   15.8838 H           1 PAX       0.2101
     62 H11       -31.8557  -28.8953   16.8209 H           1 PAX       0.0704
     63 H12       -33.6305  -22.4951   15.6215 H           1 PAX       0.0639
     64 H13       -32.5466  -21.3930   16.4336 H           1 PAX       0.0639
     65 H14       -32.2259  -24.2412   15.6893 H           1 PAX       0.0653
     66 H15       -29.9247  -25.2214   15.3888 H           1 PAX       0.0959
     67 H16       -28.8361  -22.8314   16.9519 H           1 PAX       0.0348
     68 H17       -29.0211  -24.5079   17.4755 H           1 PAX       0.0348
     69 H18       -30.9295  -22.4297   17.7430 H           1 PAX       0.0686
     70 H19       -28.3444  -26.0522   14.0073 H           1 PAX       0.1011
     71 H20       -26.1712  -21.9796   13.5185 H           1 PAX       0.2259
     72 H21       -26.2252  -27.1123   12.9332 H           1 PAX       0.0296
     73 H22       -25.6035  -26.1183   11.6142 H           1 PAX       0.0296
     74 H23       -27.3053  -26.5906   11.6238 H           1 PAX       0.0296
@<TRIPOS>BOND
     1     1     2  ar
     2     1     3  ar
     3     1     4   1
     4     8     1   1
     5     4    23   1
     6     5     6  ar
     7     5     7  ar
     8     5     8   1
     9    38     5   1
    10     9    10  ar
    11     9    11  ar
    12     9    12  ar
    13    30     9   1
    14    13    14   1
    15    13    22   1
    16    26    13   1
    17    14    15  ar
    18    14    20  ar
    19    15    16  ar
    20    16    17  ar
    21    18    17  ar
    22    18    19   1
    23    20    18  ar
    24    21    20   1
    25    22    21   2
    26    23    24   1
    27    24    25   1
    28    24    29   1
    29    25    26   1
    30    27    26   1
    31    27    28   1
    32    29    27   1
    33    29    30   1
    34    32    31   1
    35    31    39   1
    36    33    32   1
    37    33    34   1
    38    37    33   1
    39    35    34   1
    40    36    35   1
    41    35    43   1
    42    37    36   1
    43    37    38   1
    44    39    40  ar
    45    39    41  ar
    46    39    42  ar
    47    43    44   1
    48    43    45  am
    49    44    50   2
    50    45    46   2
    51    45    47  am
    52    47    48  am
    53    48    49   2
    54    48    50   1
    55    50    51   1
    56    16    52   1
    57    19    53   1
    58    19    54   1
    59    22    55   1
    60    23    56   1
    61    23    57   1
    62    24    58   1
    63    26    59   1
    64    27    60   1
    65    28    61   1
    66    29    62   1
    67    32    63   1
    68    32    64   1
    69    33    65   1
    70    35    66   1
    71    36    67   1
    72    36    68   1
    73    37    69   1
    74    44    70   1
    75    47    71   1
    76    51    72   1
    77    51    73   1
    78    51    74   1
@<TRIPOS>SUBSTRUCTURE
     1  PAX     14

