@<TRIPOS>MOLECULE
1u1b_ligand_028
    74    78
SMALL
GAST_HUCK
****
This file was generated by PARSER (from files_GN.cpp)

@<TRIPOS>ATOM
      1 PA        -24.5539  -34.2454   18.7593 P.3         1 PAX       0.2972
      2 O1A       -24.1673  -34.3400   20.1461 O.co2       1 PAX      -0.6127
      3 O2A       -25.3654  -35.3816   18.3960 O.co2       1 PAX      -0.6127
      4 O5        -25.4235  -32.9663   18.5673 O.3         1 PAX      -0.2476
      5 PB        -21.9188  -34.5333   18.2519 P.3         1 PAX       0.2974
      6 O1B       -21.4346  -33.5254   19.1632 O.co2       1 PAX      -0.6127
      7 O2B       -21.9208  -35.8228   18.8950 O.co2       1 PAX      -0.6127
      8 O3A       -23.3520  -34.1376   17.7648 O.3         1 PAX      -0.1319
      9 PG        -28.5091  -29.0870   20.3978 P.3         1 PAX       0.2013
     10 O1G       -29.2062  -28.1642   19.5355 O.co2       1 PAX      -0.5537
     11 O2G       -28.6849  -28.5904   21.7417 O.co2       1 PAX      -0.5537
     12 O3G       -27.0921  -28.9876   20.1448 O.co2       1 PAX      -0.5537
     13 N9A       -29.0786  -30.8107   15.5905 N.pl3       1 PAX      -0.1919
     14 C4A       -29.5209  -31.8997   14.9403 C.ar        1 PAX       0.1613
     15 N3A       -29.7681  -33.1658   15.3650 N.ar        1 PAX      -0.2714
     16 C2A       -30.2160  -34.1035   14.4879 C.ar        1 PAX       0.0533
     17 N1A       -30.4124  -33.7787   13.1788 N.ar        1 PAX      -0.2698
     18 C6A       -30.1734  -32.5223   12.7065 C.ar        1 PAX       0.1298
     19 N6A       -30.3796  -32.2368   11.4110 N.pl3       1 PAX      -0.3152
     20 C5A       -29.7058  -31.5468   13.6065 C.ar        1 PAX       0.1045
     21 N7A       -29.3717  -30.2581   13.4543 N.2         1 PAX      -0.2958
     22 C8A       -28.9905  -29.8262   14.6695 C.2         1 PAX       0.1123
     23 C5        -26.7791  -32.9948   19.0725 C.3         1 PAX       0.1131
     24 C4        -27.4823  -31.6715   18.6685 C.3         1 PAX       0.1235
     25 O4        -27.6075  -31.5982   17.2419 O.3         1 PAX      -0.3360
     26 C1        -28.7015  -30.7165   16.9695 C.3         1 PAX       0.2013
     27 C2        -29.7761  -31.1592   17.9811 C.3         1 PAX       0.1432
     28 O2        -30.8306  -30.2175   18.1762 O.3         1 PAX      -0.3832
     29 C3        -28.9245  -31.4639   19.2390 C.3         1 PAX       0.1487
     30 O3        -29.0731  -30.5419   20.3516 O.3         1 PAX      -0.2674
     31 O5        -16.9023  -33.1831   15.5005 O.3         1 PAX      -0.2734
     32 C5        -18.3108  -33.2657   15.1576 C.3         1 PAX       0.1074
     33 C4        -18.9937  -34.5895   15.6283 C.3         1 PAX       0.1209
     34 O4        -18.0800  -35.6998   15.5422 O.3         1 PAX      -0.3391
     35 C1        -18.4644  -36.6626   16.5402 C.3         1 PAX       0.1760
     36 C2        -18.8693  -35.7705   17.7292 C.3         1 PAX       0.0362
     37 C3        -19.5687  -34.5604   17.0792 C.3         1 PAX       0.1284
     38 O3        -21.0167  -34.6204   16.9829 O.3         1 PAX      -0.2441
     39 PD        -15.8829  -33.8340   14.5197 P.3         1 PAX       0.2008
     40 O1D       -15.4597  -32.8790   13.5231 O.co2       1 PAX      -0.5537
     41 O2D       -16.3978  -34.9988   13.8344 O.co2       1 PAX      -0.5537
     42 O3D       -14.7182  -34.2310   15.2758 O.co2       1 PAX      -0.5537
     43 N1T       -17.4670  -37.6608   16.9129 N.am        1 PAX      -0.1736
     44 C6T       -17.8609  -38.7173   17.6869 C.2         1 PAX       0.0524
     45 C2T       -16.1685  -37.5986   16.5445 C.2         1 PAX       0.3265
     46 O2T       -15.6832  -36.6845   15.8867 O.2         1 PAX      -0.3843
     47 N3T       -15.3210  -38.5558   16.9110 N.am        1 PAX      -0.1859
     48 C4T       -15.7096  -39.5933   17.6439 C.2         1 PAX       0.1930
     49 O4T       -14.8607  -40.4340   17.9143 O.2         1 PAX      -0.4079
     50 C5T       -17.0086  -39.6946   18.0804 C.2         1 PAX       0.0225
     51 CM5       -17.4370  -40.7899   18.9485 C.3         1 PAX      -0.0437
     52 H1        -30.4064  -35.0531   14.8097 H           1 PAX       0.0996
     53 H2        -30.2062  -31.3418   11.0759 H           1 PAX       0.1820
     54 H3        -30.7082  -32.9246   10.8089 H           1 PAX       0.1820
     55 H4        -28.6622  -28.8772   14.8515 H           1 PAX       0.1349
     56 H5        -26.8004  -33.0737   20.1685 H           1 PAX       0.0648
     57 H6        -27.3299  -33.8444   18.6456 H           1 PAX       0.0648
     58 H7        -26.8191  -30.8651   18.9626 H           1 PAX       0.0654
     59 H8        -28.4005  -29.6883   17.2022 H           1 PAX       0.0996
     60 H9        -30.2437  -32.0883   17.6449 H           1 PAX       0.0680
     61 H10       -31.0307  -29.8739   17.2787 H           1 PAX       0.2101
     62 H11       -29.2825  -32.4156   19.6457 H           1 PAX       0.0704
     63 H12       -18.4962  -33.1135   14.0845 H           1 PAX       0.0639
     64 H13       -18.7987  -32.4213   15.6532 H           1 PAX       0.0639
     65 H14       -19.8060  -34.8014   14.9205 H           1 PAX       0.0653
     66 H15       -19.3485  -37.1877   16.1522 H           1 PAX       0.0959
     67 H16       -17.9659  -35.4341   18.2476 H           1 PAX       0.0348
     68 H17       -19.5037  -36.2983   18.4395 H           1 PAX       0.0348
     69 H18       -19.2610  -33.6476   17.6034 H           1 PAX       0.0686
     70 H19       -18.8038  -38.7739   17.9853 H           1 PAX       0.1011
     71 H20       -14.3915  -38.5002   16.6289 H           1 PAX       0.2259
     72 H21       -18.4781  -40.6911   19.2714 H           1 PAX       0.0296
     73 H22       -16.8132  -40.8176   19.8470 H           1 PAX       0.0296
     74 H23       -17.3322  -41.7420   18.4206 H           1 PAX       0.0296
@<TRIPOS>BOND
     1     1     2  ar
     2     1     3  ar
     3     1     4   1
     4     8     1   1
     5     4    23   1
     6     5     6  ar
     7     5     7  ar
     8     5     8   1
     9    38     5   1
    10     9    10  ar
    11     9    11  ar
    12     9    12  ar
    13    30     9   1
    14    13    14   1
    15    13    22   1
    16    26    13   1
    17    14    15  ar
    18    14    20  ar
    19    15    16  ar
    20    16    17  ar
    21    18    17  ar
    22    18    19   1
    23    20    18  ar
    24    21    20   1
    25    22    21   2
    26    23    24   1
    27    24    25   1
    28    24    29   1
    29    25    26   1
    30    27    26   1
    31    27    28   1
    32    29    27   1
    33    29    30   1
    34    32    31   1
    35    31    39   1
    36    33    32   1
    37    33    34   1
    38    37    33   1
    39    35    34   1
    40    36    35   1
    41    35    43   1
    42    37    36   1
    43    37    38   1
    44    39    40  ar
    45    39    41  ar
    46    39    42  ar
    47    43    44   1
    48    43    45  am
    49    44    50   2
    50    45    46   2
    51    45    47  am
    52    47    48  am
    53    48    49   2
    54    48    50   1
    55    50    51   1
    56    16    52   1
    57    19    53   1
    58    19    54   1
    59    22    55   1
    60    23    56   1
    61    23    57   1
    62    24    58   1
    63    26    59   1
    64    27    60   1
    65    28    61   1
    66    29    62   1
    67    32    63   1
    68    32    64   1
    69    33    65   1
    70    35    66   1
    71    36    67   1
    72    36    68   1
    73    37    69   1
    74    44    70   1
    75    47    71   1
    76    51    72   1
    77    51    73   1
    78    51    74   1
@<TRIPOS>SUBSTRUCTURE
     1  PAX     14

