@<TRIPOS>MOLECULE
1u1b_ligand_060
    74    78
SMALL
GAST_HUCK
****
This file was generated by PARSER (from files_GN.cpp)

@<TRIPOS>ATOM
      1 PA        -23.0205  -34.4533   14.1627 P.3         1 PAX       0.2972
      2 O1A       -22.8936  -34.9757   12.8219 O.co2       1 PAX      -0.6127
      3 O2A       -23.5339  -33.1296   13.9316 O.co2       1 PAX      -0.6127
      4 O5        -24.0499  -35.3202   14.9555 O.3         1 PAX      -0.2476
      5 PB        -20.6649  -35.5061   14.8872 P.3         1 PAX       0.2974
      6 O1B       -20.5574  -35.9073   16.2711 O.co2       1 PAX      -0.6127
      7 O2B       -20.9061  -36.6525   14.0422 O.co2       1 PAX      -0.6127
      8 O3A       -21.6245  -34.2797   14.8223 O.3         1 PAX      -0.1319
      9 PG        -26.7951  -37.4520   14.0146 P.3         1 PAX       0.2013
     10 O1G       -27.6941  -38.3113   13.2862 O.co2       1 PAX      -0.5537
     11 O2G       -25.6917  -37.1652   13.1253 O.co2       1 PAX      -0.5537
     12 O3G       -26.3232  -38.2185   15.1395 O.co2       1 PAX      -0.5537
     13 N9A       -28.5685  -32.6832   17.1899 N.pl3       1 PAX      -0.1919
     14 C4A       -27.8789  -31.7744   17.9033 C.ar        1 PAX       0.1613
     15 N3A       -26.5941  -31.7666   18.3409 N.ar        1 PAX      -0.2714
     16 C2A       -26.1219  -30.7062   19.0372 C.ar        1 PAX       0.0533
     17 N1A       -26.9279  -29.6380   19.2876 N.ar        1 PAX      -0.2698
     18 C6A       -28.2245  -29.5935   18.8688 C.ar        1 PAX       0.1298
     19 N6A       -28.9789  -28.5117   19.1231 N.pl3       1 PAX      -0.3152
     20 C5A       -28.7255  -30.6953   18.1514 C.ar        1 PAX       0.1045
     21 N7A       -29.9155  -30.9595   17.5990 N.2         1 PAX      -0.2958
     22 C8A       -29.8063  -32.1692   17.0194 C.2         1 PAX       0.1123
     23 C5        -24.6470  -34.7606   16.1483 C.3         1 PAX       0.1131
     24 C4        -26.1497  -35.1440   16.2073 C.3         1 PAX       0.1235
     25 O4        -26.8029  -34.2921   17.1601 O.3         1 PAX      -0.3360
     26 C1        -28.0929  -33.9286   16.6525 C.3         1 PAX       0.2013
     27 C2        -27.8910  -33.8589   15.1276 C.3         1 PAX       0.1432
     28 O2        -29.1181  -33.9493   14.4025 O.3         1 PAX      -0.3832
     29 C3        -26.9066  -35.0076   14.8500 C.3         1 PAX       0.1487
     30 O3        -27.6219  -36.2056   14.4598 O.3         1 PAX      -0.2674
     31 O5        -15.8401  -36.4028   16.4411 O.3         1 PAX      -0.2734
     32 C5        -16.9639  -35.7481   17.0750 C.3         1 PAX       0.1074
     33 C4        -17.5990  -34.7215   16.1030 C.3         1 PAX       0.1209
     34 O4        -16.6484  -33.6832   15.8051 O.3         1 PAX      -0.3391
     35 C1        -16.6456  -33.4552   14.3902 C.3         1 PAX       0.1760
     36 C2        -17.0348  -34.8104   13.7688 C.3         1 PAX       0.0362
     37 C3        -18.0838  -35.3378   14.7557 C.3         1 PAX       0.1284
     38 O3        -19.3681  -34.8073   14.3749 O.3         1 PAX      -0.2441
     39 PD        -15.7512  -37.9525   16.4890 P.3         1 PAX       0.2008
     40 O1D       -14.3813  -38.3515   16.2809 O.co2       1 PAX      -0.5537
     41 O2D       -16.5385  -38.5853   15.4608 O.co2       1 PAX      -0.5537
     42 O3D       -16.1639  -38.4715   17.7695 O.co2       1 PAX      -0.5537
     43 N1T       -15.3656  -32.9369   13.9382 N.am        1 PAX      -0.1736
     44 C6T       -14.2120  -33.5695   14.3156 C.2         1 PAX       0.0524
     45 C2T       -15.2650  -31.8393   13.1593 C.2         1 PAX       0.3265
     46 O2T       -16.2243  -31.1985   12.7528 O.2         1 PAX      -0.3843
     47 N3T       -14.0681  -31.3988   12.7759 N.am        1 PAX      -0.1859
     48 C4T       -12.9476  -32.0172   13.1357 C.2         1 PAX       0.1930
     49 O4T       -11.8936  -31.5349   12.7388 O.2         1 PAX      -0.4079
     50 C5T       -12.9886  -33.1441   13.9225 C.2         1 PAX       0.0225
     51 CM5       -11.7698  -33.8438   14.3193 C.3         1 PAX      -0.0437
     52 H1        -25.1544  -30.7069   19.3672 H           1 PAX       0.0996
     53 H2        -29.8918  -28.4709   18.7986 H           1 PAX       0.1820
     54 H3        -28.6113  -27.7555   19.6132 H           1 PAX       0.1820
     55 H4        -30.5644  -32.6275   16.5047 H           1 PAX       0.1349
     56 H5        -24.5775  -33.6697   16.2120 H           1 PAX       0.0648
     57 H6        -24.1337  -35.1741   17.0195 H           1 PAX       0.0648
     58 H7        -26.2409  -36.1626   16.5901 H           1 PAX       0.0654
     59 H8        -28.7966  -34.7295   16.9112 H           1 PAX       0.0996
     60 H9        -27.4145  -32.9036   14.8748 H           1 PAX       0.0680
     61 H10       -28.8649  -33.8610   13.4583 H           1 PAX       0.2101
     62 H11       -26.2628  -34.6795   14.0261 H           1 PAX       0.0704
     63 H12       -16.5876  -35.2062   17.9474 H           1 PAX       0.0639
     64 H13       -17.7515  -36.4267   17.4261 H           1 PAX       0.0639
     65 H14       -18.4351  -34.2400   16.6179 H           1 PAX       0.0653
     66 H15       -17.4610  -32.7489   14.1872 H           1 PAX       0.0959
     67 H16       -16.1823  -35.4939   13.7421 H           1 PAX       0.0348
     68 H17       -17.4246  -34.6969   12.7530 H           1 PAX       0.0348
     69 H18       -18.0788  -36.4342   14.7405 H           1 PAX       0.0686
     70 H19       -14.2707  -34.3640   14.9093 H           1 PAX       0.1011
     71 H20       -14.0110  -30.6068   12.2167 H           1 PAX       0.2259
     72 H21       -11.9679  -34.7318   14.9237 H           1 PAX       0.0296
     73 H22       -11.1345  -33.1752   14.9035 H           1 PAX       0.0296
     74 H23       -11.2233  -34.1631   13.4298 H           1 PAX       0.0296
@<TRIPOS>BOND
     1     1     2  ar
     2     1     3  ar
     3     1     4   1
     4     8     1   1
     5     4    23   1
     6     5     6  ar
     7     5     7  ar
     8     5     8   1
     9    38     5   1
    10     9    10  ar
    11     9    11  ar
    12     9    12  ar
    13    30     9   1
    14    13    14   1
    15    13    22   1
    16    26    13   1
    17    14    15  ar
    18    14    20  ar
    19    15    16  ar
    20    16    17  ar
    21    18    17  ar
    22    18    19   1
    23    20    18  ar
    24    21    20   1
    25    22    21   2
    26    23    24   1
    27    24    25   1
    28    24    29   1
    29    25    26   1
    30    27    26   1
    31    27    28   1
    32    29    27   1
    33    29    30   1
    34    32    31   1
    35    31    39   1
    36    33    32   1
    37    33    34   1
    38    37    33   1
    39    35    34   1
    40    36    35   1
    41    35    43   1
    42    37    36   1
    43    37    38   1
    44    39    40  ar
    45    39    41  ar
    46    39    42  ar
    47    43    44   1
    48    43    45  am
    49    44    50   2
    50    45    46   2
    51    45    47  am
    52    47    48  am
    53    48    49   2
    54    48    50   1
    55    50    51   1
    56    16    52   1
    57    19    53   1
    58    19    54   1
    59    22    55   1
    60    23    56   1
    61    23    57   1
    62    24    58   1
    63    26    59   1
    64    27    60   1
    65    28    61   1
    66    29    62   1
    67    32    63   1
    68    32    64   1
    69    33    65   1
    70    35    66   1
    71    36    67   1
    72    36    68   1
    73    37    69   1
    74    44    70   1
    75    47    71   1
    76    51    72   1
    77    51    73   1
    78    51    74   1
@<TRIPOS>SUBSTRUCTURE
     1  PAX     14

