@<TRIPOS>MOLECULE
1u1b_ligand_094
    74    78
SMALL
GAST_HUCK
****
This file was generated by PARSER (from files_GN.cpp)

@<TRIPOS>ATOM
      1 PA        -32.6653  -31.6232   13.5498 P.3         1 PAX       0.2972
      2 O1A       -33.8840  -31.1942   12.9154 O.co2       1 PAX      -0.6127
      3 O2A       -31.6176  -31.3464   12.5951 O.co2       1 PAX      -0.6127
      4 O5        -32.6083  -30.8169   14.8849 O.3         1 PAX      -0.2476
      5 PB        -31.7081  -34.1107   13.7981 P.3         1 PAX       0.2974
      6 O1B       -32.1568  -35.4319   14.1544 O.co2       1 PAX      -0.6127
      7 O2B       -31.3378  -34.2709   12.4149 O.co2       1 PAX      -0.6127
      8 O3A       -32.9206  -33.1249   13.8994 O.3         1 PAX      -0.1319
      9 PG        -34.9047  -29.0671   18.5085 P.3         1 PAX       0.2013
     10 O1G       -35.7401  -29.5119   17.4155 O.co2       1 PAX      -0.5537
     11 O2G       -35.0812  -30.0294   19.5734 O.co2       1 PAX      -0.5537
     12 O3G       -35.3999  -27.8052   19.0002 O.co2       1 PAX      -0.5537
     13 N9A       -30.0841  -26.0116   17.0993 N.pl3       1 PAX      -0.1919
     14 C4A       -29.1982  -25.8350   16.0959 C.ar        1 PAX       0.1613
     15 N3A       -28.7904  -26.6494   15.0881 N.ar        1 PAX      -0.2714
     16 C2A       -27.8707  -26.2160   14.1850 C.ar        1 PAX       0.0533
     17 N1A       -27.3650  -24.9556   14.2801 N.ar        1 PAX      -0.2698
     18 C6A       -27.7422  -24.1049   15.2719 C.ar        1 PAX       0.1298
     19 N6A       -27.2350  -22.8641   15.3315 N.pl3       1 PAX      -0.3152
     20 C5A       -28.6769  -24.5507   16.2212 C.ar        1 PAX       0.1045
     21 N7A       -29.2202  -23.9717   17.2982 N.2         1 PAX      -0.2958
     22 C8A       -30.0680  -24.8718   17.8280 C.2         1 PAX       0.1123
     23 C5        -31.8466  -29.5919   14.8975 C.3         1 PAX       0.1131
     24 C4        -31.7336  -29.0896   16.3621 C.3         1 PAX       0.1235
     25 O4        -30.6060  -28.2153   16.4452 O.3         1 PAX      -0.3360
     26 C1        -30.9004  -27.1644   17.3665 C.3         1 PAX       0.2013
     27 C2        -32.4142  -26.9283   17.1861 C.3         1 PAX       0.1432
     28 O2        -32.9938  -26.2329   18.2880 O.3         1 PAX      -0.3832
     29 C3        -32.9766  -28.3452   16.9324 C.3         1 PAX       0.1487
     30 O3        -33.3915  -29.0373   18.1431 O.3         1 PAX      -0.2674
     31 O5        -32.6576  -32.9904   17.5924 O.3         1 PAX      -0.2734
     32 C5        -31.3298  -32.5559   17.9674 C.3         1 PAX       0.1074
     33 C4        -30.3966  -32.5676   16.7344 C.3         1 PAX       0.1209
     34 O4        -29.0818  -32.2054   17.1790 O.3         1 PAX      -0.3391
     35 C1        -28.1418  -33.1280   16.6235 C.3         1 PAX       0.1760
     36 C2        -28.9304  -34.4359   16.3865 C.3         1 PAX       0.0362
     37 C3        -30.3343  -33.9345   16.0043 C.3         1 PAX       0.1284
     38 O3        -30.3832  -33.7706   14.5629 O.3         1 PAX      -0.2441
     39 PD        -33.5784  -33.4193   18.7739 P.3         1 PAX       0.2008
     40 O1D       -34.8448  -33.8601   18.2357 O.co2       1 PAX      -0.5537
     41 O2D       -33.8235  -32.3264   19.6821 O.co2       1 PAX      -0.5537
     42 O3D       -32.9934  -34.5197   19.4949 O.co2       1 PAX      -0.5537
     43 N1T       -26.9814  -33.2574   17.4963 N.am        1 PAX      -0.1736
     44 C6T       -25.7371  -32.9399   17.0347 C.2         1 PAX       0.0524
     45 C2T       -27.1074  -33.6534   18.7808 C.2         1 PAX       0.3265
     46 O2T       -28.1832  -33.8878   19.3089 O.2         1 PAX      -0.3843
     47 N3T       -26.0234  -33.8045   19.5383 N.am        1 PAX      -0.1859
     48 C4T       -24.8047  -33.5449   19.0799 C.2         1 PAX       0.1930
     49 O4T       -23.8653  -33.7572   19.8358 O.2         1 PAX      -0.4079
     50 C5T       -24.6293  -33.0578   17.8023 C.2         1 PAX       0.0225
     51 CM5       -23.3117  -32.6583   17.3213 C.3         1 PAX      -0.0437
     52 H1        -27.5658  -26.8343   13.4338 H           1 PAX       0.0996
     53 H2        -27.5026  -22.2755   16.0531 H           1 PAX       0.1820
     54 H3        -26.5982  -22.5617   14.6649 H           1 PAX       0.1820
     55 H4        -30.6208  -24.6983   18.6682 H           1 PAX       0.1349
     56 H5        -32.3128  -28.8294   14.2626 H           1 PAX       0.0648
     57 H6        -30.8277  -29.7711   14.5313 H           1 PAX       0.0648
     58 H7        -31.4962  -29.9439   16.9986 H           1 PAX       0.0654
     59 H8        -30.6933  -27.5268   18.3820 H           1 PAX       0.0996
     60 H9        -32.5724  -26.3187   16.2938 H           1 PAX       0.0680
     61 H10       -32.8173  -26.7915   19.0745 H           1 PAX       0.2101
     62 H11       -33.7770  -28.3085   16.1801 H           1 PAX       0.0704
     63 H12       -30.8782  -33.2092   18.7221 H           1 PAX       0.0639
     64 H13       -31.3693  -31.5401   18.3758 H           1 PAX       0.0639
     65 H14       -30.7107  -31.8015   16.0382 H           1 PAX       0.0653
     66 H15       -27.8679  -32.7361   15.6349 H           1 PAX       0.0959
     67 H16       -28.9922  -35.0417   17.2973 H           1 PAX       0.0348
     68 H17       -28.4814  -35.0482   15.5945 H           1 PAX       0.0348
     69 H18       -31.0748  -34.6522   16.3871 H           1 PAX       0.0686
     70 H19       -25.6369  -32.5912   16.1092 H           1 PAX       0.1011
     71 H20       -26.1276  -34.1257   20.4473 H           1 PAX       0.2259
     72 H21       -23.3350  -32.2549   16.3059 H           1 PAX       0.0296
     73 H22       -22.6408  -33.5194   17.3247 H           1 PAX       0.0296
     74 H23       -22.8978  -31.8873   17.9752 H           1 PAX       0.0296
@<TRIPOS>BOND
     1     1     2  ar
     2     1     3  ar
     3     1     4   1
     4     8     1   1
     5     4    23   1
     6     5     6  ar
     7     5     7  ar
     8     5     8   1
     9    38     5   1
    10     9    10  ar
    11     9    11  ar
    12     9    12  ar
    13    30     9   1
    14    13    14   1
    15    13    22   1
    16    26    13   1
    17    14    15  ar
    18    14    20  ar
    19    15    16  ar
    20    16    17  ar
    21    18    17  ar
    22    18    19   1
    23    20    18  ar
    24    21    20   1
    25    22    21   2
    26    23    24   1
    27    24    25   1
    28    24    29   1
    29    25    26   1
    30    27    26   1
    31    27    28   1
    32    29    27   1
    33    29    30   1
    34    32    31   1
    35    31    39   1
    36    33    32   1
    37    33    34   1
    38    37    33   1
    39    35    34   1
    40    36    35   1
    41    35    43   1
    42    37    36   1
    43    37    38   1
    44    39    40  ar
    45    39    41  ar
    46    39    42  ar
    47    43    44   1
    48    43    45  am
    49    44    50   2
    50    45    46   2
    51    45    47  am
    52    47    48  am
    53    48    49   2
    54    48    50   1
    55    50    51   1
    56    16    52   1
    57    19    53   1
    58    19    54   1
    59    22    55   1
    60    23    56   1
    61    23    57   1
    62    24    58   1
    63    26    59   1
    64    27    60   1
    65    28    61   1
    66    29    62   1
    67    32    63   1
    68    32    64   1
    69    33    65   1
    70    35    66   1
    71    36    67   1
    72    36    68   1
    73    37    69   1
    74    44    70   1
    75    47    71   1
    76    51    72   1
    77    51    73   1
    78    51    74   1
@<TRIPOS>SUBSTRUCTURE
     1  PAX     14

