@<TRIPOS>MOLECULE
1u1b_ligand_030
    74    78
SMALL
GAST_HUCK
****
This file was generated by PARSER (from files_GN.cpp)

@<TRIPOS>ATOM
      1 PA        -30.8283  -28.9272   17.1544 P.3         1 PAX       0.2972
      2 O1A       -30.2626  -27.8983   16.3161 O.co2       1 PAX      -0.6127
      3 O2A       -31.5033  -29.9238   16.3493 O.co2       1 PAX      -0.6127
      4 O5        -29.7422  -29.7481   17.9237 O.3         1 PAX      -0.2476
      5 PB        -32.4275  -27.0547   18.1747 P.3         1 PAX       0.2974
      6 O1B       -33.7978  -27.2412   17.7494 O.co2       1 PAX      -0.6127
      7 O2B       -32.5402  -26.5025   19.5116 O.co2       1 PAX      -0.6127
      8 O3A       -31.7262  -28.4349   18.3343 O.3         1 PAX      -0.1319
      9 PG        -31.1098  -32.7315   17.8851 P.3         1 PAX       0.2013
     10 O1G       -31.0190  -32.5104   16.4593 O.co2       1 PAX      -0.5537
     11 O2G       -32.0548  -33.8044   18.0763 O.co2       1 PAX      -0.5537
     12 O3G       -31.6469  -31.5557   18.5337 O.co2       1 PAX      -0.5537
     13 N9A       -25.0882  -33.1889   18.3983 N.pl3       1 PAX      -0.1919
     14 C4A       -24.0674  -32.7999   17.6110 C.ar        1 PAX       0.1613
     15 N3A       -24.0458  -32.1095   16.4395 N.ar        1 PAX      -0.2714
     16 C2A       -22.8584  -31.8361   15.8329 C.ar        1 PAX       0.0533
     17 N1A       -21.6907  -32.2673   16.3880 N.ar        1 PAX      -0.2698
     18 C6A       -21.6600  -32.9675   17.5544 C.ar        1 PAX       0.1298
     19 N6A       -20.4964  -33.3947   18.0596 N.pl3       1 PAX      -0.3152
     20 C5A       -22.8788  -33.2374   18.1992 C.ar        1 PAX       0.1045
     21 N7A       -23.1790  -33.8842   19.3339 N.2         1 PAX      -0.2958
     22 C8A       -24.5185  -33.8522   19.4347 C.2         1 PAX       0.1123
     23 C5        -28.4305  -30.0183   17.3875 C.3         1 PAX       0.1131
     24 C4        -28.1540  -31.5466   17.4769 C.3         1 PAX       0.1235
     25 O4        -26.7361  -31.7706   17.4601 O.3         1 PAX      -0.3360
     26 C1        -26.4944  -33.0269   18.1066 C.3         1 PAX       0.2013
     27 C2        -27.4629  -32.9728   19.3073 C.3         1 PAX       0.1432
     28 O2        -27.7751  -34.2619   19.8362 O.3         1 PAX      -0.3832
     29 C3        -28.7059  -32.2479   18.7556 C.3         1 PAX       0.1487
     30 O3        -29.7536  -33.2008   18.4741 O.3         1 PAX      -0.2674
     31 O5        -32.0732  -22.6555   19.2528 O.3         1 PAX      -0.2734
     32 C5        -31.5549  -22.3947   17.9295 C.3         1 PAX       0.1074
     33 C4        -31.5291  -23.6314   16.9907 C.3         1 PAX       0.1209
     34 O4        -30.6929  -23.3472   15.8495 O.3         1 PAX      -0.3391
     35 C1        -29.8014  -24.4587   15.6470 C.3         1 PAX       0.1760
     36 C2        -29.5553  -24.9799   17.0728 C.3         1 PAX       0.0362
     37 C3        -30.9727  -24.9206   17.6645 C.3         1 PAX       0.1284
     38 O3        -31.7753  -26.0388   17.1819 O.3         1 PAX      -0.2441
     39 PD        -33.5853  -22.9446   19.4470 P.3         1 PAX       0.2008
     40 O1D       -33.6838  -24.1324   20.2642 O.co2       1 PAX      -0.5537
     41 O2D       -34.3850  -23.1524   18.2628 O.co2       1 PAX      -0.5537
     42 O3D       -34.1670  -21.8778   20.2283 O.co2       1 PAX      -0.5537
     43 N1T       -28.5755  -24.1950   14.9088 N.am        1 PAX      -0.1736
     44 C6T       -27.9486  -25.2443   14.2906 C.2         1 PAX       0.0524
     45 C2T       -28.0434  -22.9632   14.7649 C.2         1 PAX       0.3265
     46 O2T       -28.4726  -21.9664   15.3243 O.2         1 PAX      -0.3843
     47 N3T       -26.9913  -22.7795   13.9702 N.am        1 PAX      -0.1859
     48 C4T       -26.4288  -23.7866   13.3114 C.2         1 PAX       0.1930
     49 O4T       -25.4978  -23.5164   12.5635 O.2         1 PAX      -0.4079
     50 C5T       -26.8816  -25.0744   13.4716 C.2         1 PAX       0.0225
     51 CM5       -26.2309  -26.1976   12.8029 C.3         1 PAX      -0.0437
     52 H1        -22.8480  -31.3104   14.9592 H           1 PAX       0.0996
     53 H2        -20.4809  -33.9052   18.8810 H           1 PAX       0.1820
     54 H3        -19.6691  -33.1924   17.6018 H           1 PAX       0.1820
     55 H4        -25.0153  -34.2949   20.2100 H           1 PAX       0.1349
     56 H5        -27.6999  -29.4771   17.9992 H           1 PAX       0.0648
     57 H6        -28.3224  -29.7021   16.3400 H           1 PAX       0.0648
     58 H7        -28.5754  -32.0272   16.5777 H           1 PAX       0.0654
     59 H8        -26.7769  -33.8417   17.4310 H           1 PAX       0.0996
     60 H9        -27.0098  -32.3726   20.1013 H           1 PAX       0.0680
     61 H10       -27.1298  -34.4499   20.5443 H           1 PAX       0.2101
     62 H11       -29.0349  -31.5371   19.5123 H           1 PAX       0.0704
     63 H12       -30.5216  -22.0611   18.0663 H           1 PAX       0.0639
     64 H13       -32.1028  -21.5767   17.4480 H           1 PAX       0.0639
     65 H14       -32.5445  -23.8082   16.6293 H           1 PAX       0.0653
     66 H15       -30.3794  -25.2078   15.0854 H           1 PAX       0.0959
     67 H16       -28.8951  -24.3003   17.6173 H           1 PAX       0.0348
     68 H17       -29.1356  -25.9861   17.1016 H           1 PAX       0.0348
     69 H18       -30.9198  -24.8389   18.7644 H           1 PAX       0.0686
     70 H19       -28.2977  -26.1684   14.4261 H           1 PAX       0.1011
     71 H20       -26.6304  -21.8805   13.8591 H           1 PAX       0.2259
     72 H21       -26.6716  -27.1631   13.0623 H           1 PAX       0.0296
     73 H22       -25.1726  -26.2264   13.0791 H           1 PAX       0.0296
     74 H23       -26.3054  -26.0743   11.7187 H           1 PAX       0.0296
@<TRIPOS>BOND
     1     1     2  ar
     2     1     3  ar
     3     1     4   1
     4     8     1   1
     5     4    23   1
     6     5     6  ar
     7     5     7  ar
     8     5     8   1
     9    38     5   1
    10     9    10  ar
    11     9    11  ar
    12     9    12  ar
    13    30     9   1
    14    13    14   1
    15    13    22   1
    16    26    13   1
    17    14    15  ar
    18    14    20  ar
    19    15    16  ar
    20    16    17  ar
    21    18    17  ar
    22    18    19   1
    23    20    18  ar
    24    21    20   1
    25    22    21   2
    26    23    24   1
    27    24    25   1
    28    24    29   1
    29    25    26   1
    30    27    26   1
    31    27    28   1
    32    29    27   1
    33    29    30   1
    34    32    31   1
    35    31    39   1
    36    33    32   1
    37    33    34   1
    38    37    33   1
    39    35    34   1
    40    36    35   1
    41    35    43   1
    42    37    36   1
    43    37    38   1
    44    39    40  ar
    45    39    41  ar
    46    39    42  ar
    47    43    44   1
    48    43    45  am
    49    44    50   2
    50    45    46   2
    51    45    47  am
    52    47    48  am
    53    48    49   2
    54    48    50   1
    55    50    51   1
    56    16    52   1
    57    19    53   1
    58    19    54   1
    59    22    55   1
    60    23    56   1
    61    23    57   1
    62    24    58   1
    63    26    59   1
    64    27    60   1
    65    28    61   1
    66    29    62   1
    67    32    63   1
    68    32    64   1
    69    33    65   1
    70    35    66   1
    71    36    67   1
    72    36    68   1
    73    37    69   1
    74    44    70   1
    75    47    71   1
    76    51    72   1
    77    51    73   1
    78    51    74   1
@<TRIPOS>SUBSTRUCTURE
     1  PAX     14

