@<TRIPOS>MOLECULE
1u1b_ligand_091
    74    78
SMALL
GAST_HUCK
****
This file was generated by PARSER (from files_GN.cpp)

@<TRIPOS>ATOM
      1 PA        -35.1728  -35.5053   14.9497 P.3         1 PAX       0.2972
      2 O1A       -35.9542  -35.1695   13.7841 O.co2       1 PAX      -0.6127
      3 O2A       -34.9810  -36.9342   15.0027 O.co2       1 PAX      -0.6127
      4 O5        -33.7996  -34.7967   14.7463 O.3         1 PAX      -0.2476
      5 PB        -37.2952  -34.7983   16.4409 P.3         1 PAX       0.2974
      6 O1B       -37.7656  -33.7974   15.5126 O.co2       1 PAX      -0.6127
      7 O2B       -38.0632  -35.9996   16.2197 O.co2       1 PAX      -0.6127
      8 O3A       -35.7560  -34.9501   16.2728 O.3         1 PAX      -0.1319
      9 PG        -28.5521  -35.9288   13.8005 P.3         1 PAX       0.2013
     10 O1G       -27.2315  -35.4700   14.1562 O.co2       1 PAX      -0.5537
     11 O2G       -28.7628  -37.2606   14.3118 O.co2       1 PAX      -0.5537
     12 O3G       -28.5592  -36.0398   12.3640 O.co2       1 PAX      -0.5537
     13 N9A       -29.7993  -31.8185   17.6534 N.pl3       1 PAX      -0.1919
     14 C4A       -28.6100  -31.2803   17.9743 C.ar        1 PAX       0.1613
     15 N3A       -27.4063  -31.3173   17.3465 N.ar        1 PAX      -0.2714
     16 C2A       -26.3374  -30.6831   17.8932 C.ar        1 PAX       0.0533
     17 N1A       -26.4692  -30.0010   19.0660 N.ar        1 PAX      -0.2698
     18 C6A       -27.6569  -29.9325   19.7299 C.ar        1 PAX       0.1298
     19 N6A       -27.7424  -29.2501   20.8824 N.pl3       1 PAX      -0.3152
     20 C5A       -28.7680  -30.5896   19.1743 C.ar        1 PAX       0.1045
     21 N7A       -30.0440  -30.7078   19.5695 N.2         1 PAX      -0.2958
     22 C8A       -30.6588  -31.4531   18.6336 C.2         1 PAX       0.1123
     23 C5        -32.8186  -34.9383   15.8022 C.3         1 PAX       0.1131
     24 C4        -31.5536  -34.0862   15.4749 C.3         1 PAX       0.1235
     25 O4        -31.4624  -32.9864   16.3904 O.3         1 PAX      -0.3360
     26 C1        -30.0823  -32.6203   16.4910 C.3         1 PAX       0.2013
     27 C2        -29.3565  -33.9789   16.4995 C.3         1 PAX       0.1432
     28 O2        -27.9778  -33.8529   16.1624 O.3         1 PAX      -0.3832
     29 C3        -30.1893  -34.8422   15.5263 C.3         1 PAX       0.1487
     30 O3        -29.6749  -34.9163   14.1730 O.3         1 PAX      -0.2674
     31 O5        -35.1089  -34.1039   21.3291 O.3         1 PAX      -0.2734
     32 C5        -36.5267  -34.3603   21.2996 C.3         1 PAX       0.1074
     33 C4        -37.1603  -33.5242   20.1618 C.3         1 PAX       0.1209
     34 O4        -36.9129  -32.1360   20.4298 O.3         1 PAX      -0.3391
     35 C1        -36.7299  -31.4602   19.1754 C.3         1 PAX       0.1760
     36 C2        -35.9237  -32.5053   18.3747 C.3         1 PAX       0.0362
     37 C3        -36.5979  -33.8429   18.7441 C.3         1 PAX       0.1284
     38 O3        -37.6715  -34.2146   17.8419 O.3         1 PAX      -0.2441
     39 PD        -34.2262  -35.0491   22.1896 P.3         1 PAX       0.2008
     40 O1D       -34.7281  -36.3975   22.2553 O.co2       1 PAX      -0.5537
     41 O2D       -33.9710  -34.5232   23.5097 O.co2       1 PAX      -0.5537
     42 O3D       -32.9681  -35.1167   21.4935 O.co2       1 PAX      -0.5537
     43 N1T       -36.2029  -30.1142   19.3971 N.am        1 PAX      -0.1736
     44 C6T       -35.0752  -29.6460   18.7740 C.2         1 PAX       0.0524
     45 C2T       -36.8748  -29.2672   20.2074 C.2         1 PAX       0.3265
     46 O2T       -37.9012  -29.5705   20.8019 O.2         1 PAX      -0.3843
     47 N3T       -36.4418  -28.0249   20.3866 N.am        1 PAX      -0.1859
     48 C4T       -35.3532  -27.5698   19.7798 C.2         1 PAX       0.1930
     49 O4T       -35.0471  -26.4041   19.9930 O.2         1 PAX      -0.4079
     50 C5T       -34.6202  -28.3836   18.9498 C.2         1 PAX       0.0225
     51 CM5       -33.4043  -27.9015   18.2990 C.3         1 PAX      -0.0437
     52 H1        -25.4341  -30.7130   17.4233 H           1 PAX       0.0996
     53 H2        -28.5873  -29.2017   21.3601 H           1 PAX       0.1820
     54 H3        -26.9576  -28.8060   21.2457 H           1 PAX       0.1820
     55 H4        -31.6513  -31.7023   18.6795 H           1 PAX       0.1349
     56 H5        -32.5585  -35.9980   15.8937 H           1 PAX       0.0648
     57 H6        -33.2301  -34.6195   16.7683 H           1 PAX       0.0648
     58 H7        -31.6850  -33.6443   14.4839 H           1 PAX       0.0654
     59 H8        -29.8036  -32.0472   15.5993 H           1 PAX       0.0996
     60 H9        -29.4201  -34.4071   17.5071 H           1 PAX       0.0680
     61 H10       -27.5858  -34.7242   16.3742 H           1 PAX       0.2101
     62 H11       -30.3121  -35.8380   15.9634 H           1 PAX       0.0704
     63 H12       -36.9945  -34.0916   22.2537 H           1 PAX       0.0639
     64 H13       -36.7285  -35.4154   21.0948 H           1 PAX       0.0639
     65 H14       -38.2420  -33.6803   20.1825 H           1 PAX       0.0653
     66 H15       -37.7094  -31.3461   18.6880 H           1 PAX       0.0959
     67 H16       -34.8849  -32.5252   18.7200 H           1 PAX       0.0348
     68 H17       -35.9493  -32.2851   17.3071 H           1 PAX       0.0348
     69 H18       -35.8538  -34.6446   18.7932 H           1 PAX       0.0686
     70 H19       -34.5751  -30.2396   18.1550 H           1 PAX       0.1011
     71 H20       -36.9433  -27.4336   20.9696 H           1 PAX       0.2259
     72 H21       -32.8998  -28.6738   17.7149 H           1 PAX       0.0296
     73 H22       -32.7013  -27.5438   19.0536 H           1 PAX       0.0296
     74 H23       -33.6468  -27.0757   17.6280 H           1 PAX       0.0296
@<TRIPOS>BOND
     1     1     2  ar
     2     1     3  ar
     3     1     4   1
     4     8     1   1
     5     4    23   1
     6     5     6  ar
     7     5     7  ar
     8     5     8   1
     9    38     5   1
    10     9    10  ar
    11     9    11  ar
    12     9    12  ar
    13    30     9   1
    14    13    14   1
    15    13    22   1
    16    26    13   1
    17    14    15  ar
    18    14    20  ar
    19    15    16  ar
    20    16    17  ar
    21    18    17  ar
    22    18    19   1
    23    20    18  ar
    24    21    20   1
    25    22    21   2
    26    23    24   1
    27    24    25   1
    28    24    29   1
    29    25    26   1
    30    27    26   1
    31    27    28   1
    32    29    27   1
    33    29    30   1
    34    32    31   1
    35    31    39   1
    36    33    32   1
    37    33    34   1
    38    37    33   1
    39    35    34   1
    40    36    35   1
    41    35    43   1
    42    37    36   1
    43    37    38   1
    44    39    40  ar
    45    39    41  ar
    46    39    42  ar
    47    43    44   1
    48    43    45  am
    49    44    50   2
    50    45    46   2
    51    45    47  am
    52    47    48  am
    53    48    49   2
    54    48    50   1
    55    50    51   1
    56    16    52   1
    57    19    53   1
    58    19    54   1
    59    22    55   1
    60    23    56   1
    61    23    57   1
    62    24    58   1
    63    26    59   1
    64    27    60   1
    65    28    61   1
    66    29    62   1
    67    32    63   1
    68    32    64   1
    69    33    65   1
    70    35    66   1
    71    36    67   1
    72    36    68   1
    73    37    69   1
    74    44    70   1
    75    47    71   1
    76    51    72   1
    77    51    73   1
    78    51    74   1
@<TRIPOS>SUBSTRUCTURE
     1  PAX     14

