@<TRIPOS>MOLECULE
1u1b_ligand_046
    74    78
SMALL
GAST_HUCK
****
This file was generated by PARSER (from files_GN.cpp)

@<TRIPOS>ATOM
      1 PA        -33.1538  -29.5125   17.3398 P.3         1 PAX       0.2972
      2 O1A       -34.2398  -29.3197   18.2721 O.co2       1 PAX      -0.6127
      3 O2A       -33.7263  -28.9841   16.1219 O.co2       1 PAX      -0.6127
      4 O5        -32.0342  -28.6725   18.0123 O.3         1 PAX      -0.2476
      5 PB        -31.9450  -31.6865   16.4518 P.3         1 PAX       0.2974
      6 O1B       -32.1467  -33.1071   16.6024 O.co2       1 PAX      -0.6127
      7 O2B       -32.2495  -31.4206   15.0642 O.co2       1 PAX      -0.6127
      8 O3A       -33.0036  -31.0573   17.3950 O.3         1 PAX      -0.1319
      9 PG        -33.4084  -25.5462   20.0381 P.3         1 PAX       0.2013
     10 O1G       -34.3653  -24.4987   19.7711 O.co2       1 PAX      -0.5537
     11 O2G       -33.9331  -26.8083   19.5724 O.co2       1 PAX      -0.5537
     12 O3G       -33.2651  -25.6361   21.4720 O.co2       1 PAX      -0.5537
     13 N9A       -28.7508  -23.9907   16.4724 N.pl3       1 PAX      -0.1919
     14 C4A       -28.1482  -24.5150   15.3875 C.ar        1 PAX       0.1613
     15 N3A       -28.0932  -25.7847   14.9061 N.ar        1 PAX      -0.2714
     16 C2A       -27.4231  -26.0518   13.7537 C.ar        1 PAX       0.0533
     17 N1A       -26.8208  -25.0411   13.0679 N.ar        1 PAX      -0.2698
     18 C6A       -26.8474  -23.7524   13.5050 C.ar        1 PAX       0.1298
     19 N6A       -26.2547  -22.7894   12.7820 N.pl3       1 PAX      -0.3152
     20 C5A       -27.5191  -23.4732   14.7075 C.ar        1 PAX       0.1045
     21 N7A       -27.7233  -22.3387   15.3904 N.2         1 PAX      -0.2958
     22 C8A       -28.4654  -22.6699   16.4646 C.2         1 PAX       0.1123
     23 C5        -31.1708  -27.8921   17.1637 C.3         1 PAX       0.1131
     24 C4        -30.7073  -26.6365   17.9448 C.3         1 PAX       0.1235
     25 O4        -29.5562  -26.0890   17.2868 O.3         1 PAX      -0.3360
     26 C1        -29.5597  -24.6665   17.4543 C.3         1 PAX       0.2013
     27 C2        -31.0572  -24.3042   17.3673 C.3         1 PAX       0.1432
     28 O2        -31.3626  -23.0381   17.9624 O.3         1 PAX      -0.3832
     29 C3        -31.7649  -25.4980   18.0414 C.3         1 PAX       0.1487
     30 O3        -32.0155  -25.1919   19.4345 O.3         1 PAX      -0.2674
     31 O5        -29.1126  -30.8241   20.3746 O.3         1 PAX      -0.2734
     32 C5        -28.3114  -31.7549   19.6090 C.3         1 PAX       0.1074
     33 C4        -28.3988  -31.4787   18.0762 C.3         1 PAX       0.1209
     34 O4        -27.1733  -31.9355   17.4824 O.3         1 PAX      -0.3391
     35 C1        -27.4155  -32.3081   16.1162 C.3         1 PAX       0.1760
     36 C2        -28.7934  -32.9983   16.2324 C.3         1 PAX       0.0362
     37 C3        -29.5493  -32.2058   17.3220 C.3         1 PAX       0.1284
     38 O3        -30.4906  -31.2331   16.8110 O.3         1 PAX      -0.2441
     39 PD        -28.4666  -29.4683   20.7946 P.3         1 PAX       0.2008
     40 O1D       -28.2627  -29.4706   22.2282 O.co2       1 PAX      -0.5537
     41 O2D       -29.4406  -28.4272   20.5428 O.co2       1 PAX      -0.5537
     42 O3D       -27.2268  -29.1033   20.1470 O.co2       1 PAX      -0.5537
     43 N1T       -26.2401  -33.0093   15.6050 N.am        1 PAX      -0.1736
     44 C6T       -25.0461  -32.3309   15.6283 C.2         1 PAX       0.0524
     45 C2T       -26.2300  -34.2636   15.1101 C.2         1 PAX       0.3265
     46 O2T       -27.2259  -34.9465   14.9325 O.2         1 PAX      -0.3843
     47 N3T       -25.0820  -34.8392   14.7595 N.am        1 PAX      -0.1859
     48 C4T       -23.9200  -34.2026   14.8429 C.2         1 PAX       0.1930
     49 O4T       -22.9222  -34.8264   14.5105 O.2         1 PAX      -0.4079
     50 C5T       -23.8700  -32.8997   15.2685 C.2         1 PAX       0.0225
     51 CM5       -22.6026  -32.1720   15.3228 C.3         1 PAX      -0.0437
     52 H1        -27.3794  -27.0091   13.4005 H           1 PAX       0.0996
     53 H2        -26.2557  -21.8688   13.0908 H           1 PAX       0.1820
     54 H3        -25.8335  -23.0139   11.9339 H           1 PAX       0.1820
     55 H4        -28.7811  -21.9957   17.1630 H           1 PAX       0.1349
     56 H5        -31.6565  -27.5633   16.2379 H           1 PAX       0.0648
     57 H6        -30.2953  -28.4892   16.9016 H           1 PAX       0.0648
     58 H7        -30.3849  -26.9512   18.9495 H           1 PAX       0.0654
     59 H8        -29.1727  -24.4394   18.4529 H           1 PAX       0.0996
     60 H9        -31.3548  -24.2559   16.3121 H           1 PAX       0.0680
     61 H10       -31.0302  -23.0932   18.8857 H           1 PAX       0.2101
     62 H11       -32.6722  -25.7193   17.4691 H           1 PAX       0.0704
     63 H12       -28.6923  -32.7562   19.8174 H           1 PAX       0.0639
     64 H13       -27.2640  -31.7669   19.9301 H           1 PAX       0.0639
     65 H14       -28.4566  -30.3946   17.9108 H           1 PAX       0.0653
     66 H15       -27.5488  -31.3949   15.5167 H           1 PAX       0.0959
     67 H16       -28.6783  -34.0283   16.5830 H           1 PAX       0.0348
     68 H17       -29.3220  -33.0046   15.2746 H           1 PAX       0.0348
     69 H18       -30.0561  -32.8967   18.0054 H           1 PAX       0.0686
     70 H19       -25.0281  -31.3801   15.9345 H           1 PAX       0.1011
     71 H20       -25.0975  -35.7554   14.4329 H           1 PAX       0.2259
     72 H21       -22.7168  -31.1445   15.6733 H           1 PAX       0.0296
     73 H22       -22.1508  -32.1363   14.3280 H           1 PAX       0.0296
     74 H23       -21.9127  -32.6811   16.0007 H           1 PAX       0.0296
@<TRIPOS>BOND
     1     1     2  ar
     2     1     3  ar
     3     1     4   1
     4     8     1   1
     5     4    23   1
     6     5     6  ar
     7     5     7  ar
     8     5     8   1
     9    38     5   1
    10     9    10  ar
    11     9    11  ar
    12     9    12  ar
    13    30     9   1
    14    13    14   1
    15    13    22   1
    16    26    13   1
    17    14    15  ar
    18    14    20  ar
    19    15    16  ar
    20    16    17  ar
    21    18    17  ar
    22    18    19   1
    23    20    18  ar
    24    21    20   1
    25    22    21   2
    26    23    24   1
    27    24    25   1
    28    24    29   1
    29    25    26   1
    30    27    26   1
    31    27    28   1
    32    29    27   1
    33    29    30   1
    34    32    31   1
    35    31    39   1
    36    33    32   1
    37    33    34   1
    38    37    33   1
    39    35    34   1
    40    36    35   1
    41    35    43   1
    42    37    36   1
    43    37    38   1
    44    39    40  ar
    45    39    41  ar
    46    39    42  ar
    47    43    44   1
    48    43    45  am
    49    44    50   2
    50    45    46   2
    51    45    47  am
    52    47    48  am
    53    48    49   2
    54    48    50   1
    55    50    51   1
    56    16    52   1
    57    19    53   1
    58    19    54   1
    59    22    55   1
    60    23    56   1
    61    23    57   1
    62    24    58   1
    63    26    59   1
    64    27    60   1
    65    28    61   1
    66    29    62   1
    67    32    63   1
    68    32    64   1
    69    33    65   1
    70    35    66   1
    71    36    67   1
    72    36    68   1
    73    37    69   1
    74    44    70   1
    75    47    71   1
    76    51    72   1
    77    51    73   1
    78    51    74   1
@<TRIPOS>SUBSTRUCTURE
     1  PAX     14

