@<TRIPOS>MOLECULE
1u1b_ligand_006
    74    78
SMALL
GAST_HUCK
****
This file was generated by PARSER (from files_GN.cpp)

@<TRIPOS>ATOM
      1 PA        -29.6975  -29.4082   17.4923 P.3         1 PAX       0.2972
      2 O1A       -29.4409  -28.7895   16.2131 O.co2       1 PAX      -0.6127
      3 O2A       -28.5861  -29.1059   18.3611 O.co2       1 PAX      -0.6127
      4 O5        -31.0445  -28.9352   18.1314 O.3         1 PAX      -0.2476
      5 PB        -29.8652  -31.9251   18.3784 P.3         1 PAX       0.2974
      6 O1B       -28.4953  -32.2288   18.7334 O.co2       1 PAX      -0.6127
      7 O2B       -30.4904  -31.4710   19.6027 O.co2       1 PAX      -0.6127
      8 O3A       -29.7999  -30.9330   17.1779 O.3         1 PAX      -0.1319
      9 PG        -33.3740  -25.5529   20.5250 P.3         1 PAX       0.2013
     10 O1G       -34.1292  -26.5276   19.7761 O.co2       1 PAX      -0.5537
     11 O2G       -32.9024  -26.1880   21.7296 O.co2       1 PAX      -0.5537
     12 O3G       -34.2874  -24.5191   20.9439 O.co2       1 PAX      -0.5537
     13 N9A       -28.8850  -23.9253   16.6236 N.pl3       1 PAX      -0.1919
     14 C4A       -28.2879  -24.4623   15.5432 C.ar        1 PAX       0.1613
     15 N3A       -28.2064  -25.7428   15.0934 N.ar        1 PAX      -0.2714
     16 C2A       -27.5307  -26.0183   13.9451 C.ar        1 PAX       0.0533
     17 N1A       -26.9447  -25.0120   13.2333 N.ar        1 PAX      -0.2698
     18 C6A       -26.9956  -23.7164   13.6409 C.ar        1 PAX       0.1298
     19 N6A       -26.4079  -22.7561   12.9052 N.pl3       1 PAX      -0.3152
     20 C5A       -27.6770  -23.4248   14.8372 C.ar        1 PAX       0.1045
     21 N7A       -27.8883  -22.2782   15.4940 N.2         1 PAX      -0.2958
     22 C8A       -28.6144  -22.5988   16.5796 C.2         1 PAX       0.1123
     23 C5        -31.6297  -27.6849   17.7285 C.3         1 PAX       0.1131
     24 C4        -30.9450  -26.4051   18.2871 C.3         1 PAX       0.1235
     25 O4        -29.8683  -25.9878   17.4297 O.3         1 PAX      -0.3360
     26 C1        -29.6606  -24.5835   17.6487 C.3         1 PAX       0.2013
     27 C2        -31.0967  -24.0341   17.7647 C.3         1 PAX       0.1432
     28 O2        -31.1471  -22.8101   18.5008 O.3         1 PAX      -0.3832
     29 C3        -31.8965  -25.1808   18.4179 C.3         1 PAX       0.1487
     30 O3        -32.1697  -24.8741   19.8068 O.3         1 PAX      -0.2674
     31 O5        -34.1239  -34.5147   15.6354 O.3         1 PAX      -0.2734
     32 C5        -33.6636  -35.0105   16.9118 C.3         1 PAX       0.1074
     33 C4        -32.1259  -34.8169   17.0284 C.3         1 PAX       0.1209
     34 O4        -31.5213  -35.4054   15.8606 O.3         1 PAX      -0.3391
     35 C1        -30.8209  -34.3869   15.1206 C.3         1 PAX       0.1760
     36 C2        -31.3581  -33.0424   15.6580 C.3         1 PAX       0.0362
     37 C3        -31.6392  -33.3467   17.1363 C.3         1 PAX       0.1284
     38 O3        -30.4454  -33.3129   17.9720 O.3         1 PAX      -0.2441
     39 PD        -35.1704  -35.3659   14.8644 P.3         1 PAX       0.2008
     40 O1D       -36.4939  -35.2780   15.4337 O.co2       1 PAX      -0.5537
     41 O2D       -34.7418  -36.7399   14.8069 O.co2       1 PAX      -0.5537
     42 O3D       -35.2199  -34.8727   13.5142 O.co2       1 PAX      -0.5537
     43 N1T       -30.9017  -34.4534   13.6668 N.am        1 PAX      -0.1736
     44 C6T       -30.1721  -33.5493   12.9371 C.2         1 PAX       0.0524
     45 C2T       -31.6888  -35.3198   12.9921 C.2         1 PAX       0.3265
     46 O2T       -32.3604  -36.1922   13.5195 O.2         1 PAX      -0.3843
     47 N3T       -31.7995  -35.2295   11.6684 N.am        1 PAX      -0.1859
     48 C4T       -31.1372  -34.3156   10.9679 C.2         1 PAX       0.1930
     49 O4T       -31.3341  -34.2871    9.7603 O.2         1 PAX      -0.4079
     50 C5T       -30.2704  -33.4467   11.5911 C.2         1 PAX       0.0225
     51 CM5       -29.4962  -32.4663   10.8362 C.3         1 PAX      -0.0437
     52 H1        -27.4658  -26.9814   13.6137 H           1 PAX       0.0996
     53 H2        -26.4272  -21.8302   13.1966 H           1 PAX       0.1820
     54 H3        -25.9632  -22.9884   12.0727 H           1 PAX       0.1820
     55 H4        -28.9241  -21.9081   17.2659 H           1 PAX       0.1349
     56 H5        -32.6441  -27.7377   18.1168 H           1 PAX       0.0648
     57 H6        -31.7241  -27.6220   16.6406 H           1 PAX       0.0648
     58 H7        -30.5212  -26.6455   19.2664 H           1 PAX       0.0654
     59 H8        -29.1354  -24.4581   18.6015 H           1 PAX       0.0996
     60 H9        -31.4892  -23.8410   16.7597 H           1 PAX       0.0680
     61 H10       -32.0818  -22.5178   18.4488 H           1 PAX       0.2101
     62 H11       -32.8167  -25.3082   17.8333 H           1 PAX       0.0704
     63 H12       -33.8681  -36.0803   17.0391 H           1 PAX       0.0639
     64 H13       -34.1784  -34.4771   17.7142 H           1 PAX       0.0639
     65 H14       -31.7936  -35.3793   17.9082 H           1 PAX       0.0653
     66 H15       -29.7653  -34.4868   15.4074 H           1 PAX       0.0959
     67 H16       -32.2848  -32.7715   15.1475 H           1 PAX       0.0348
     68 H17       -30.6342  -32.2402   15.5163 H           1 PAX       0.0348
     69 H18       -32.4317  -32.7037   17.5374 H           1 PAX       0.0686
     70 H19       -29.5471  -32.9376   13.4131 H           1 PAX       0.1011
     71 H20       -32.3932  -35.8422   11.2015 H           1 PAX       0.2259
     72 H21       -28.8625  -31.8464   11.4760 H           1 PAX       0.0296
     73 H22       -30.1727  -31.8039   10.2925 H           1 PAX       0.0296
     74 H23       -28.8510  -32.9812   10.1219 H           1 PAX       0.0296
@<TRIPOS>BOND
     1     1     2  ar
     2     1     3  ar
     3     1     4   1
     4     8     1   1
     5     4    23   1
     6     5     6  ar
     7     5     7  ar
     8     5     8   1
     9    38     5   1
    10     9    10  ar
    11     9    11  ar
    12     9    12  ar
    13    30     9   1
    14    13    14   1
    15    13    22   1
    16    26    13   1
    17    14    15  ar
    18    14    20  ar
    19    15    16  ar
    20    16    17  ar
    21    18    17  ar
    22    18    19   1
    23    20    18  ar
    24    21    20   1
    25    22    21   2
    26    23    24   1
    27    24    25   1
    28    24    29   1
    29    25    26   1
    30    27    26   1
    31    27    28   1
    32    29    27   1
    33    29    30   1
    34    32    31   1
    35    31    39   1
    36    33    32   1
    37    33    34   1
    38    37    33   1
    39    35    34   1
    40    36    35   1
    41    35    43   1
    42    37    36   1
    43    37    38   1
    44    39    40  ar
    45    39    41  ar
    46    39    42  ar
    47    43    44   1
    48    43    45  am
    49    44    50   2
    50    45    46   2
    51    45    47  am
    52    47    48  am
    53    48    49   2
    54    48    50   1
    55    50    51   1
    56    16    52   1
    57    19    53   1
    58    19    54   1
    59    22    55   1
    60    23    56   1
    61    23    57   1
    62    24    58   1
    63    26    59   1
    64    27    60   1
    65    28    61   1
    66    29    62   1
    67    32    63   1
    68    32    64   1
    69    33    65   1
    70    35    66   1
    71    36    67   1
    72    36    68   1
    73    37    69   1
    74    44    70   1
    75    47    71   1
    76    51    72   1
    77    51    73   1
    78    51    74   1
@<TRIPOS>SUBSTRUCTURE
     1  PAX     14

