@<TRIPOS>MOLECULE
1u1b_ligand_002
    74    78
SMALL
GAST_HUCK
****
This file was generated by PARSER (from files_GN.cpp)

@<TRIPOS>ATOM
      1 PA        -23.1564  -32.5636   16.6050 P.3         1 PAX       0.2972
      2 O1A       -22.2994  -31.4516   16.2728 O.co2       1 PAX      -0.6127
      3 O2A       -23.8528  -32.1371   17.7891 O.co2       1 PAX      -0.6127
      4 O5        -24.0500  -32.8848   15.3561 O.3         1 PAX      -0.2476
      5 PB        -21.3694  -34.3955   15.8816 P.3         1 PAX       0.2974
      6 O1B       -22.2174  -35.1594   14.9907 O.co2       1 PAX      -0.6127
      7 O2B       -20.7110  -33.4157   15.0453 O.co2       1 PAX      -0.6127
      8 O3A       -22.2330  -33.7574   17.0191 O.3         1 PAX      -0.1319
      9 PG        -27.1922  -36.8445   15.1684 P.3         1 PAX       0.2013
     10 O1G       -26.3458  -37.9133   15.6387 O.co2       1 PAX      -0.5537
     11 O2G       -28.4286  -37.4783   14.7729 O.co2       1 PAX      -0.5537
     12 O3G       -26.5661  -36.2475   14.0105 O.co2       1 PAX      -0.5537
     13 N9A       -27.9366  -32.3789   19.1466 N.pl3       1 PAX      -0.1919
     14 C4A       -28.3690  -31.1538   18.7925 C.ar        1 PAX       0.1613
     15 N3A       -28.5710  -30.5713   17.5797 N.ar        1 PAX      -0.2714
     16 C2A       -29.0590  -29.3082   17.4959 C.ar        1 PAX       0.0533
     17 N1A       -29.3353  -28.6066   18.6275 N.ar        1 PAX      -0.2698
     18 C6A       -29.1416  -29.1389   19.8663 C.ar        1 PAX       0.1298
     19 N6A       -29.4091  -28.4108   20.9624 N.pl3       1 PAX      -0.3152
     20 C5A       -28.6513  -30.4507   19.9608 C.ar        1 PAX       0.1045
     21 N7A       -28.3695  -31.2340   21.0052 N.2         1 PAX      -0.2958
     22 C8A       -27.9308  -32.4034   20.4989 C.2         1 PAX       0.1123
     23 C5        -25.4916  -32.8879   15.4175 C.3         1 PAX       0.1131
     24 C4        -26.1050  -33.8581   16.4691 C.3         1 PAX       0.1235
     25 O4        -26.2641  -33.1097   17.6867 O.3         1 PAX      -0.3360
     26 C1        -27.5049  -33.4524   18.2943 C.3         1 PAX       0.2013
     27 C2        -28.4428  -33.7816   17.1152 C.3         1 PAX       0.1432
     28 O2        -29.5559  -34.5673   17.5339 O.3         1 PAX      -0.3832
     29 C3        -27.4946  -34.4668   16.1147 C.3         1 PAX       0.1487
     30 O3        -27.4904  -35.8961   16.3578 O.3         1 PAX      -0.2674
     31 O5        -16.1446  -33.7748   15.5926 O.3         1 PAX      -0.2734
     32 C5        -17.4177  -33.8638   14.9102 C.3         1 PAX       0.1074
     33 C4        -18.1988  -35.1519   15.2936 C.3         1 PAX       0.1209
     34 O4        -17.3040  -36.2684   15.3618 O.3         1 PAX      -0.3391
     35 C1        -17.6973  -37.1134   16.4544 C.3         1 PAX       0.1760
     36 C2        -18.2749  -36.1398   17.4957 C.3         1 PAX       0.0362
     37 C3        -18.9816  -35.0766   16.6416 C.3         1 PAX       0.1284
     38 O3        -20.3757  -35.4440   16.4818 O.3         1 PAX      -0.2441
     39 PD        -14.8729  -34.2084   14.7969 P.3         1 PAX       0.2008
     40 O1D       -14.5240  -33.2161   13.8090 O.co2       1 PAX      -0.5537
     41 O2D       -15.0157  -35.4789   14.1318 O.co2       1 PAX      -0.5537
     42 O3D       -13.7603  -34.3181   15.7093 O.co2       1 PAX      -0.5537
     43 N1T       -16.6127  -37.9259   16.9905 N.am        1 PAX      -0.1736
     44 C6T       -15.3062  -37.5712   16.7791 C.2         1 PAX       0.0524
     45 C2T       -16.8648  -39.0426   17.7057 C.2         1 PAX       0.3265
     46 O2T       -17.9941  -39.4267   17.9889 O.2         1 PAX      -0.3843
     47 N3T       -15.8531  -39.7983   18.1375 N.am        1 PAX      -0.1859
     48 C4T       -14.5839  -39.4867   17.8897 C.2         1 PAX       0.1930
     49 O4T       -13.7249  -40.2468   18.3255 O.2         1 PAX      -0.4079
     50 C5T       -14.2726  -38.3451   17.1870 C.2         1 PAX       0.0225
     51 CM5       -12.8882  -37.9909   16.8894 C.3         1 PAX      -0.0437
     52 H1        -29.2176  -28.8837   16.5815 H           1 PAX       0.0996
     53 H2        -29.2694  -28.7825   21.8510 H           1 PAX       0.1820
     54 H3        -29.6672  -27.4830   20.8643 H           1 PAX       0.1820
     55 H4        -27.6380  -33.1957   21.0736 H           1 PAX       0.1349
     56 H5        -25.7992  -33.2052   14.4208 H           1 PAX       0.0648
     57 H6        -25.8707  -31.8693   15.5510 H           1 PAX       0.0648
     58 H7        -25.3855  -34.6644   16.6537 H           1 PAX       0.0654
     59 H8        -27.3506  -34.3706   18.8812 H           1 PAX       0.0996
     60 H9        -28.8320  -32.8777   16.6488 H           1 PAX       0.0680
     61 H10       -29.9411  -34.9303   16.7079 H           1 PAX       0.2101
     62 H11       -27.8363  -34.2165   15.0993 H           1 PAX       0.0704
     63 H12       -17.3427  -33.8084   13.8182 H           1 PAX       0.0639
     64 H13       -17.9971  -32.9891   15.2196 H           1 PAX       0.0639
     65 H14       -18.9009  -35.3685   14.4823 H           1 PAX       0.0653
     66 H15       -18.5011  -37.7618   16.0779 H           1 PAX       0.0959
     67 H16       -17.4637  -35.6769   18.0653 H           1 PAX       0.0348
     68 H17       -18.9503  -36.6374   18.1955 H           1 PAX       0.0348
     69 H18       -18.8958  -34.1043   17.1453 H           1 PAX       0.0686
     70 H19       -15.1020  -36.7165   16.3144 H           1 PAX       0.1011
     71 H20       -16.0525  -40.6036   18.6474 H           1 PAX       0.2259
     72 H21       -12.7971  -37.0590   16.3298 H           1 PAX       0.0296
     73 H22       -12.4293  -38.7784   16.2892 H           1 PAX       0.0296
     74 H23       -12.3217  -37.8763   17.8152 H           1 PAX       0.0296
@<TRIPOS>BOND
     1     1     2  ar
     2     1     3  ar
     3     1     4   1
     4     8     1   1
     5     4    23   1
     6     5     6  ar
     7     5     7  ar
     8     5     8   1
     9    38     5   1
    10     9    10  ar
    11     9    11  ar
    12     9    12  ar
    13    30     9   1
    14    13    14   1
    15    13    22   1
    16    26    13   1
    17    14    15  ar
    18    14    20  ar
    19    15    16  ar
    20    16    17  ar
    21    18    17  ar
    22    18    19   1
    23    20    18  ar
    24    21    20   1
    25    22    21   2
    26    23    24   1
    27    24    25   1
    28    24    29   1
    29    25    26   1
    30    27    26   1
    31    27    28   1
    32    29    27   1
    33    29    30   1
    34    32    31   1
    35    31    39   1
    36    33    32   1
    37    33    34   1
    38    37    33   1
    39    35    34   1
    40    36    35   1
    41    35    43   1
    42    37    36   1
    43    37    38   1
    44    39    40  ar
    45    39    41  ar
    46    39    42  ar
    47    43    44   1
    48    43    45  am
    49    44    50   2
    50    45    46   2
    51    45    47  am
    52    47    48  am
    53    48    49   2
    54    48    50   1
    55    50    51   1
    56    16    52   1
    57    19    53   1
    58    19    54   1
    59    22    55   1
    60    23    56   1
    61    23    57   1
    62    24    58   1
    63    26    59   1
    64    27    60   1
    65    28    61   1
    66    29    62   1
    67    32    63   1
    68    32    64   1
    69    33    65   1
    70    35    66   1
    71    36    67   1
    72    36    68   1
    73    37    69   1
    74    44    70   1
    75    47    71   1
    76    51    72   1
    77    51    73   1
    78    51    74   1
@<TRIPOS>SUBSTRUCTURE
     1  PAX     14

