@<TRIPOS>MOLECULE
1u1b_ligand_087
    74    78
SMALL
GAST_HUCK
****
This file was generated by PARSER (from files_GN.cpp)

@<TRIPOS>ATOM
      1 PA        -27.3108  -31.2552   13.7854 P.3         1 PAX       0.2972
      2 O1A       -27.9843  -29.9847   13.6081 O.co2       1 PAX      -0.6127
      3 O2A       -25.8977  -30.9920   13.6036 O.co2       1 PAX      -0.6127
      4 O5        -27.5808  -31.8616   15.1957 O.3         1 PAX      -0.2476
      5 PB        -29.2124  -32.5871   12.4965 P.3         1 PAX       0.2974
      6 O1B       -30.0038  -32.6916   13.7021 O.co2       1 PAX      -0.6127
      7 O2B       -29.7996  -31.5627   11.6582 O.co2       1 PAX      -0.6127
      8 O3A       -27.6987  -32.2793   12.6859 O.3         1 PAX      -0.1319
      9 PG        -29.1096  -34.7921   16.8914 P.3         1 PAX       0.2013
     10 O1G       -29.1887  -34.3393   15.5232 O.co2       1 PAX      -0.5537
     11 O2G       -27.8817  -35.5266   17.1003 O.co2       1 PAX      -0.5537
     12 O3G       -30.1929  -35.7454   17.0213 O.co2       1 PAX      -0.5537
     13 N9A       -29.4809  -29.5820   20.1513 N.pl3       1 PAX      -0.1919
     14 C4A       -30.3445  -28.6104   19.7798 C.ar        1 PAX       0.1613
     15 N3A       -31.0714  -28.4183   18.6487 N.ar        1 PAX      -0.2714
     16 C2A       -31.9339  -27.3745   18.5471 C.ar        1 PAX       0.0533
     17 N1A       -32.0855  -26.5169   19.5937 N.ar        1 PAX      -0.2698
     18 C6A       -31.3803  -26.6563   20.7484 C.ar        1 PAX       0.1298
     19 N6A       -31.5968  -25.7833   21.7415 N.pl3       1 PAX      -0.3152
     20 C5A       -30.4677  -27.7216   20.8475 C.ar        1 PAX       0.1045
     21 N7A       -29.6359  -28.1085   21.8224 N.2         1 PAX      -0.2958
     22 C8A       -29.0322  -29.2261   21.3787 C.2         1 PAX       0.1123
     23 C5        -27.4394  -30.9667   16.3178 C.3         1 PAX       0.1131
     24 C4        -27.9214  -31.6150   17.6409 C.3         1 PAX       0.1235
     25 O4        -27.9807  -30.5595   18.6186 O.3         1 PAX      -0.3360
     26 C1        -29.0990  -30.8009   19.4713 C.3         1 PAX       0.2013
     27 C2        -30.1565  -31.4592   18.5557 C.3         1 PAX       0.1432
     28 O2        -31.1543  -32.1792   19.2853 O.3         1 PAX      -0.3832
     29 C3        -29.3219  -32.2986   17.5656 C.3         1 PAX       0.1487
     30 O3        -29.3433  -33.6906   17.9655 O.3         1 PAX      -0.2674
     31 O5        -26.9876  -37.2688   13.1214 O.3         1 PAX      -0.2734
     32 C5        -26.7915  -36.5769   11.8621 C.3         1 PAX       0.1074
     33 C4        -28.1511  -36.0396   11.3415 C.3         1 PAX       0.1209
     34 O4        -29.0047  -37.1520   11.0459 O.3         1 PAX      -0.3391
     35 C1        -30.3115  -36.8963   11.5819 C.3         1 PAX       0.1760
     36 C2        -30.0716  -35.9825   12.7983 C.3         1 PAX       0.0362
     37 C3        -28.8831  -35.1173   12.3540 C.3         1 PAX       0.1284
     38 O3        -29.3301  -33.9088   11.6861 O.3         1 PAX      -0.2441
     39 PD        -25.9771  -36.9742   14.2664 P.3         1 PAX       0.2008
     40 O1D       -26.0429  -37.9960   15.2863 O.co2       1 PAX      -0.5537
     41 O2D       -26.3035  -35.7216   14.9040 O.co2       1 PAX      -0.5537
     42 O3D       -24.6142  -36.9040   13.7952 O.co2       1 PAX      -0.5537
     43 N1T       -31.0674  -38.0956   11.9213 N.am        1 PAX      -0.1736
     44 C6T       -30.4497  -39.3138   12.0216 C.2         1 PAX       0.0524
     45 C2T       -32.4010  -38.0401   12.1203 C.2         1 PAX       0.3265
     46 O2T       -33.0448  -36.9990   12.0846 O.2         1 PAX      -0.3843
     47 N3T       -33.0904  -39.1538   12.3420 N.am        1 PAX      -0.1859
     48 C4T       -32.5003  -40.3447   12.3840 C.2         1 PAX       0.1930
     49 O4T       -33.2184  -41.3135   12.5843 O.2         1 PAX      -0.4079
     50 C5T       -31.1374  -40.4595   12.2356 C.2         1 PAX       0.0225
     51 CM5       -30.4672  -41.7542   12.3162 C.3         1 PAX      -0.0437
     52 H1        -32.4818  -27.2437   17.6959 H           1 PAX       0.0996
     53 H2        -31.1274  -25.8546   22.5845 H           1 PAX       0.1820
     54 H3        -32.2541  -25.0808   21.6264 H           1 PAX       0.1820
     55 H4        -28.3428  -29.7473   21.9286 H           1 PAX       0.1349
     56 H5        -28.0276  -30.0541   16.1639 H           1 PAX       0.0648
     57 H6        -26.3880  -30.6918   16.4417 H           1 PAX       0.0648
     58 H7        -27.1789  -32.3441   17.9743 H           1 PAX       0.0654
     59 H8        -28.7850  -31.5482   20.2156 H           1 PAX       0.0996
     60 H9        -30.6779  -30.7021   17.9737 H           1 PAX       0.0680
     61 H10       -30.7250  -32.4631   20.1216 H           1 PAX       0.2101
     62 H11       -29.7814  -32.1971   16.5737 H           1 PAX       0.0704
     63 H12       -26.3851  -37.2859   11.1348 H           1 PAX       0.0639
     64 H13       -26.1036  -35.7243   11.9161 H           1 PAX       0.0639
     65 H14       -27.9715  -35.5059   10.4026 H           1 PAX       0.0653
     66 H15       -30.8495  -36.3374   10.8061 H           1 PAX       0.0959
     67 H16       -29.7873  -36.5794   13.6701 H           1 PAX       0.0348
     68 H17       -30.9541  -35.3872   13.0441 H           1 PAX       0.0348
     69 H18       -28.2314  -34.9216   13.2151 H           1 PAX       0.0686
     70 H19       -29.4616  -39.3672   11.9448 H           1 PAX       0.1011
     71 H20       -34.0509  -39.0973   12.4688 H           1 PAX       0.2259
     72 H21       -29.3882  -41.6849   12.1611 H           1 PAX       0.0296
     73 H22       -30.8681  -42.4253   11.5551 H           1 PAX       0.0296
     74 H23       -30.6348  -42.1967   13.2991 H           1 PAX       0.0296
@<TRIPOS>BOND
     1     1     2  ar
     2     1     3  ar
     3     1     4   1
     4     8     1   1
     5     4    23   1
     6     5     6  ar
     7     5     7  ar
     8     5     8   1
     9    38     5   1
    10     9    10  ar
    11     9    11  ar
    12     9    12  ar
    13    30     9   1
    14    13    14   1
    15    13    22   1
    16    26    13   1
    17    14    15  ar
    18    14    20  ar
    19    15    16  ar
    20    16    17  ar
    21    18    17  ar
    22    18    19   1
    23    20    18  ar
    24    21    20   1
    25    22    21   2
    26    23    24   1
    27    24    25   1
    28    24    29   1
    29    25    26   1
    30    27    26   1
    31    27    28   1
    32    29    27   1
    33    29    30   1
    34    32    31   1
    35    31    39   1
    36    33    32   1
    37    33    34   1
    38    37    33   1
    39    35    34   1
    40    36    35   1
    41    35    43   1
    42    37    36   1
    43    37    38   1
    44    39    40  ar
    45    39    41  ar
    46    39    42  ar
    47    43    44   1
    48    43    45  am
    49    44    50   2
    50    45    46   2
    51    45    47  am
    52    47    48  am
    53    48    49   2
    54    48    50   1
    55    50    51   1
    56    16    52   1
    57    19    53   1
    58    19    54   1
    59    22    55   1
    60    23    56   1
    61    23    57   1
    62    24    58   1
    63    26    59   1
    64    27    60   1
    65    28    61   1
    66    29    62   1
    67    32    63   1
    68    32    64   1
    69    33    65   1
    70    35    66   1
    71    36    67   1
    72    36    68   1
    73    37    69   1
    74    44    70   1
    75    47    71   1
    76    51    72   1
    77    51    73   1
    78    51    74   1
@<TRIPOS>SUBSTRUCTURE
     1  PAX     14

