@<TRIPOS>MOLECULE
1u1b_ligand_015
    74    78
SMALL
GAST_HUCK
****
This file was generated by PARSER (from files_GN.cpp)

@<TRIPOS>ATOM
      1 PA        -30.1203  -32.0065   18.3020 P.3         1 PAX       0.2972
      2 O1A       -30.8519  -31.3582   19.3677 O.co2       1 PAX      -0.6127
      3 O2A       -28.7641  -32.1964   18.7675 O.co2       1 PAX      -0.6127
      4 O5        -30.6872  -33.4445   18.1056 O.3         1 PAX      -0.2476
      5 PB        -29.1811  -30.2276   16.5346 P.3         1 PAX       0.2974
      6 O1B       -29.6302  -29.6425   15.2922 O.co2       1 PAX      -0.6127
      7 O2B       -29.0646  -29.1348   17.4724 O.co2       1 PAX      -0.6127
      8 O3A       -30.2807  -31.2324   16.9602 O.3         1 PAX      -0.1319
      9 PG        -33.6685  -35.6457   13.7510 P.3         1 PAX       0.2013
     10 O1G       -35.0828  -35.3949   13.6001 O.co2       1 PAX      -0.5537
     11 O2G       -32.9180  -34.4682   13.4032 O.co2       1 PAX      -0.5537
     12 O3G       -33.3070  -36.6873   12.8186 O.co2       1 PAX      -0.5537
     13 N9A       -34.0460  -36.9418   19.6166 N.pl3       1 PAX      -0.1919
     14 C4A       -35.2682  -36.8547   20.1840 C.ar        1 PAX       0.1613
     15 N3A       -36.4643  -36.3933   19.7304 N.ar        1 PAX      -0.2714
     16 C2A       -37.5633  -36.4344   20.5307 C.ar        1 PAX       0.0533
     17 N1A       -37.4743  -36.9271   21.7973 N.ar        1 PAX      -0.2698
     18 C6A       -36.2970  -37.3911   22.3017 C.ar        1 PAX       0.1298
     19 N6A       -36.2373  -37.8418   23.5648 N.pl3       1 PAX      -0.3152
     20 C5A       -35.1584  -37.3633   21.4784 C.ar        1 PAX       0.1045
     21 N7A       -33.8968  -37.7588   21.6857 N.2         1 PAX      -0.2958
     22 C8A       -33.2355  -37.4966   20.5471 C.2         1 PAX       0.1123
     23 C5        -31.8432  -33.5688   17.2469 C.3         1 PAX       0.1131
     24 C4        -32.3013  -35.0450   17.1428 C.3         1 PAX       0.1235
     25 O4        -32.5603  -35.5699   18.4518 O.3         1 PAX      -0.3360
     26 C1        -33.5758  -36.5707   18.3101 C.3         1 PAX       0.2013
     27 C2        -34.5518  -35.9191   17.3130 C.3         1 PAX       0.1432
     28 O2        -35.4472  -36.8583   16.7175 O.3         1 PAX      -0.3832
     29 C3        -33.5984  -35.2487   16.3024 C.3         1 PAX       0.1487
     30 O3        -33.3298  -36.1407   15.1855 O.3         1 PAX      -0.2674
     31 O5        -27.0769  -35.7249   15.7433 O.3         1 PAX      -0.2734
     32 C5        -27.7537  -34.5787   15.1827 C.3         1 PAX       0.1074
     33 C4        -27.3199  -33.3131   15.9759 C.3         1 PAX       0.1209
     34 O4        -25.8879  -33.2766   16.0988 O.3         1 PAX      -0.3391
     35 C1        -25.3388  -32.2472   15.2596 C.3         1 PAX       0.1760
     36 C2        -26.5176  -31.7129   14.4137 C.3         1 PAX       0.0362
     37 C3        -27.7327  -31.9790   15.3110 C.3         1 PAX       0.1284
     38 O3        -27.8048  -30.9202   16.3012 O.3         1 PAX      -0.2441
     39 PD        -27.0627  -37.0079   14.8691 P.3         1 PAX       0.2008
     40 O1D       -26.2988  -38.0179   15.5665 O.co2       1 PAX      -0.5537
     41 O2D       -26.3797  -36.7765   13.6142 O.co2       1 PAX      -0.5537
     42 O3D       -28.3814  -37.5465   14.6287 O.co2       1 PAX      -0.5537
     43 N1T       -24.1792  -32.6221   14.4633 N.am        1 PAX      -0.1736
     44 C6T       -23.5066  -31.6357   13.7888 C.2         1 PAX       0.0524
     45 C2T       -23.7236  -33.8887   14.3536 C.2         1 PAX       0.3265
     46 O2T       -24.2256  -34.8614   14.8981 O.2         1 PAX      -0.3843
     47 N3T       -22.6558  -34.1528   13.6118 N.am        1 PAX      -0.1859
     48 C4T       -22.0077  -33.2018   12.9497 C.2         1 PAX       0.1930
     49 O4T       -21.0263  -33.5452   12.3046 O.2         1 PAX      -0.4079
     50 C5T       -22.4314  -31.8948   13.0083 C.2         1 PAX       0.0225
     51 CM5       -21.7644  -30.8490   12.2406 C.3         1 PAX      -0.0437
     52 H1        -38.4579  -36.0892   20.1826 H           1 PAX       0.0996
     53 H2        -35.3845  -38.1077   23.9470 H           1 PAX       0.1820
     54 H3        -37.0362  -37.8528   24.1154 H           1 PAX       0.1820
     55 H4        -32.2425  -37.7007   20.4167 H           1 PAX       0.1349
     56 H5        -31.6045  -33.2349   16.2334 H           1 PAX       0.0648
     57 H6        -32.6729  -32.9683   17.6323 H           1 PAX       0.0648
     58 H7        -31.4774  -35.6269   16.7152 H           1 PAX       0.0654
     59 H8        -33.1478  -37.4689   17.8428 H           1 PAX       0.0996
     60 H9        -35.1332  -35.1407   17.8165 H           1 PAX       0.0680
     61 H10       -35.9524  -37.2570   17.4605 H           1 PAX       0.2101
     62 H11       -34.0355  -34.2849   16.0076 H           1 PAX       0.0704
     63 H12       -28.8432  -34.7016   15.2638 H           1 PAX       0.0639
     64 H13       -27.5000  -34.4334   14.1259 H           1 PAX       0.0639
     65 H14       -27.7411  -33.3769   16.9924 H           1 PAX       0.0653
     66 H15       -25.0317  -31.4589   15.9558 H           1 PAX       0.0959
     67 H16       -26.5958  -32.2693   13.4737 H           1 PAX       0.0348
     68 H17       -26.4122  -30.6485   14.1822 H           1 PAX       0.0348
     69 H18       -28.6336  -32.1022   14.6951 H           1 PAX       0.0686
     70 H19       -23.8247  -30.6953   13.8609 H           1 PAX       0.1011
     71 H20       -22.3400  -35.0689   13.5539 H           1 PAX       0.2259
     72 H21       -22.2063  -29.8614   12.3933 H           1 PAX       0.0296
     73 H22       -21.8242  -31.0808   11.1748 H           1 PAX       0.0296
     74 H23       -20.7126  -30.7932   12.5280 H           1 PAX       0.0296
@<TRIPOS>BOND
     1     1     2  ar
     2     1     3  ar
     3     1     4   1
     4     8     1   1
     5     4    23   1
     6     5     6  ar
     7     5     7  ar
     8     5     8   1
     9    38     5   1
    10     9    10  ar
    11     9    11  ar
    12     9    12  ar
    13    30     9   1
    14    13    14   1
    15    13    22   1
    16    26    13   1
    17    14    15  ar
    18    14    20  ar
    19    15    16  ar
    20    16    17  ar
    21    18    17  ar
    22    18    19   1
    23    20    18  ar
    24    21    20   1
    25    22    21   2
    26    23    24   1
    27    24    25   1
    28    24    29   1
    29    25    26   1
    30    27    26   1
    31    27    28   1
    32    29    27   1
    33    29    30   1
    34    32    31   1
    35    31    39   1
    36    33    32   1
    37    33    34   1
    38    37    33   1
    39    35    34   1
    40    36    35   1
    41    35    43   1
    42    37    36   1
    43    37    38   1
    44    39    40  ar
    45    39    41  ar
    46    39    42  ar
    47    43    44   1
    48    43    45  am
    49    44    50   2
    50    45    46   2
    51    45    47  am
    52    47    48  am
    53    48    49   2
    54    48    50   1
    55    50    51   1
    56    16    52   1
    57    19    53   1
    58    19    54   1
    59    22    55   1
    60    23    56   1
    61    23    57   1
    62    24    58   1
    63    26    59   1
    64    27    60   1
    65    28    61   1
    66    29    62   1
    67    32    63   1
    68    32    64   1
    69    33    65   1
    70    35    66   1
    71    36    67   1
    72    36    68   1
    73    37    69   1
    74    44    70   1
    75    47    71   1
    76    51    72   1
    77    51    73   1
    78    51    74   1
@<TRIPOS>SUBSTRUCTURE
     1  PAX     14

