@<TRIPOS>MOLECULE
1u1b_ligand_023
    74    78
SMALL
GAST_HUCK
****
This file was generated by PARSER (from files_GN.cpp)

@<TRIPOS>ATOM
      1 PA        -23.0855  -34.0175   18.1285 P.3         1 PAX       0.2972
      2 O1A       -23.0473  -34.1143   19.5666 O.co2       1 PAX      -0.6127
      3 O2A       -23.5115  -35.3146   17.6565 O.co2       1 PAX      -0.6127
      4 O5        -24.1275  -32.8847   17.8795 O.3         1 PAX      -0.2476
      5 PB        -21.0171  -34.0669   16.4073 P.3         1 PAX       0.2974
      6 O1B       -21.9220  -34.3009   15.3103 O.co2       1 PAX      -0.6127
      7 O2B       -20.1389  -33.0314   15.9237 O.co2       1 PAX      -0.6127
      8 O3A       -21.6848  -33.4852   17.6845 O.3         1 PAX      -0.1319
      9 PG        -27.2357  -36.7037   15.3076 P.3         1 PAX       0.2013
     10 O1G       -26.4815  -37.7878   15.8867 O.co2       1 PAX      -0.5537
     11 O2G       -28.5413  -37.2707   15.0828 O.co2       1 PAX      -0.5537
     12 O3G       -26.5665  -36.3948   14.0673 O.co2       1 PAX      -0.5537
     13 N9A       -29.3891  -31.5245   17.4705 N.pl3       1 PAX      -0.1919
     14 C4A       -29.4095  -30.4578   16.6444 C.ar        1 PAX       0.1613
     15 N3A       -28.7044  -30.1621   15.5201 N.ar        1 PAX      -0.2714
     16 C2A       -28.9236  -28.9975   14.8561 C.ar        1 PAX       0.0533
     17 N1A       -29.8482  -28.1146   15.3225 N.ar        1 PAX      -0.2698
     18 C6A       -30.5779  -28.3563   16.4453 C.ar        1 PAX       0.1298
     19 N6A       -31.4834  -27.4596   16.8647 N.pl3       1 PAX      -0.3152
     20 C5A       -30.3568  -29.5605   17.1356 C.ar        1 PAX       0.1045
     21 N7A       -30.8878  -30.0687   18.2546 N.2         1 PAX      -0.2958
     22 C8A       -30.2874  -31.2582   18.4463 C.2         1 PAX       0.1123
     23 C5        -24.9668  -32.9886   16.7085 C.3         1 PAX       0.1131
     24 C4        -26.3906  -33.4464   17.1338 C.3         1 PAX       0.1235
     25 O4        -27.1707  -32.3118   17.5505 O.3         1 PAX      -0.3360
     26 C1        -28.5460  -32.6890   17.3889 C.3         1 PAX       0.2013
     27 C2        -28.5619  -33.4556   16.0496 C.3         1 PAX       0.1432
     28 O2        -29.7012  -34.2945   15.8995 O.3         1 PAX      -0.3832
     29 C3        -27.2008  -34.1868   16.0298 C.3         1 PAX       0.1487
     30 O3        -27.2424  -35.5861   16.4000 O.3         1 PAX      -0.2674
     31 O5        -16.8636  -34.2734   13.7766 O.3         1 PAX      -0.2734
     32 C5        -17.0155  -34.4023   15.2024 C.3         1 PAX       0.1074
     33 C4        -18.0875  -35.4969   15.4863 C.3         1 PAX       0.1209
     34 O4        -17.4757  -36.7984   15.4436 O.3         1 PAX      -0.3391
     35 C1        -17.9822  -37.6032   16.5213 C.3         1 PAX       0.1760
     36 C2        -18.2862  -36.5716   17.6226 C.3         1 PAX       0.0362
     37 C3        -18.8058  -35.3460   16.8625 C.3         1 PAX       0.1284
     38 O3        -20.2501  -35.3977   16.7253 O.3         1 PAX      -0.2441
     39 PD        -16.1919  -32.9833   13.2423 P.3         1 PAX       0.2008
     40 O1D       -16.2807  -31.8713   14.1596 O.co2       1 PAX      -0.5537
     41 O2D       -16.9370  -32.6058   12.0591 O.co2       1 PAX      -0.5537
     42 O3D       -14.8215  -33.1777   12.8020 O.co2       1 PAX      -0.5537
     43 N1T       -17.1022  -38.6661   16.9940 N.am        1 PAX      -0.1736
     44 C6T       -17.5905  -39.5407   17.9286 C.2         1 PAX       0.0524
     45 C2T       -15.8281  -38.8357   16.5802 C.2         1 PAX       0.3265
     46 O2T       -15.2665  -38.1223   15.7586 O.2         1 PAX      -0.3843
     47 N3T       -15.0832  -39.8175   17.0790 N.am        1 PAX      -0.1859
     48 C4T       -15.5526  -40.6550   17.9985 C.2         1 PAX       0.1930
     49 O4T       -14.7891  -41.5168   18.4081 O.2         1 PAX      -0.4079
     50 C5T       -16.8405  -40.5331   18.4608 C.2         1 PAX       0.0225
     51 CM5       -17.3652  -41.4268   19.4908 C.3         1 PAX      -0.0437
     52 H1        -28.3940  -28.7828   14.0155 H           1 PAX       0.0996
     53 H2        -32.0193  -27.6365   17.6548 H           1 PAX       0.1820
     54 H3        -31.6149  -26.6335   16.3726 H           1 PAX       0.1820
     55 H4        -30.4839  -31.8595   19.2495 H           1 PAX       0.1349
     56 H5        -24.5664  -33.6578   15.9394 H           1 PAX       0.0648
     57 H6        -25.0252  -31.9947   16.2613 H           1 PAX       0.0648
     58 H7        -26.2897  -34.0977   18.0147 H           1 PAX       0.0654
     59 H8        -28.8083  -33.3886   18.1981 H           1 PAX       0.0996
     60 H9        -28.5728  -32.7468   15.2236 H           1 PAX       0.0680
     61 H10       -29.6222  -34.9945   16.5799 H           1 PAX       0.2101
     62 H11       -26.7186  -34.0366   15.0546 H           1 PAX       0.0704
     63 H12       -17.3523  -33.4442   15.6201 H           1 PAX       0.0639
     64 H13       -16.0715  -34.6754   15.6813 H           1 PAX       0.0639
     65 H14       -18.8371  -35.4799   14.6863 H           1 PAX       0.0653
     66 H15       -18.9200  -38.0542   16.1692 H           1 PAX       0.0959
     67 H16       -17.3543  -36.3111   18.1276 H           1 PAX       0.0348
     68 H17       -19.0049  -36.9335   18.3594 H           1 PAX       0.0348
     69 H18       -18.4951  -34.4528   17.4188 H           1 PAX       0.0686
     70 H19       -18.5340  -39.4429   18.2357 H           1 PAX       0.1011
     71 H20       -14.1696  -39.9223   16.7698 H           1 PAX       0.2259
     72 H21       -18.3889  -41.1814   19.7849 H           1 PAX       0.0296
     73 H22       -16.7366  -41.3637   20.3814 H           1 PAX       0.0296
     74 H23       -17.3559  -42.4536   19.1225 H           1 PAX       0.0296
@<TRIPOS>BOND
     1     1     2  ar
     2     1     3  ar
     3     1     4   1
     4     8     1   1
     5     4    23   1
     6     5     6  ar
     7     5     7  ar
     8     5     8   1
     9    38     5   1
    10     9    10  ar
    11     9    11  ar
    12     9    12  ar
    13    30     9   1
    14    13    14   1
    15    13    22   1
    16    26    13   1
    17    14    15  ar
    18    14    20  ar
    19    15    16  ar
    20    16    17  ar
    21    18    17  ar
    22    18    19   1
    23    20    18  ar
    24    21    20   1
    25    22    21   2
    26    23    24   1
    27    24    25   1
    28    24    29   1
    29    25    26   1
    30    27    26   1
    31    27    28   1
    32    29    27   1
    33    29    30   1
    34    32    31   1
    35    31    39   1
    36    33    32   1
    37    33    34   1
    38    37    33   1
    39    35    34   1
    40    36    35   1
    41    35    43   1
    42    37    36   1
    43    37    38   1
    44    39    40  ar
    45    39    41  ar
    46    39    42  ar
    47    43    44   1
    48    43    45  am
    49    44    50   2
    50    45    46   2
    51    45    47  am
    52    47    48  am
    53    48    49   2
    54    48    50   1
    55    50    51   1
    56    16    52   1
    57    19    53   1
    58    19    54   1
    59    22    55   1
    60    23    56   1
    61    23    57   1
    62    24    58   1
    63    26    59   1
    64    27    60   1
    65    28    61   1
    66    29    62   1
    67    32    63   1
    68    32    64   1
    69    33    65   1
    70    35    66   1
    71    36    67   1
    72    36    68   1
    73    37    69   1
    74    44    70   1
    75    47    71   1
    76    51    72   1
    77    51    73   1
    78    51    74   1
@<TRIPOS>SUBSTRUCTURE
     1  PAX     14

