@<TRIPOS>MOLECULE
1u1b_ligand_031
    74    78
SMALL
GAST_HUCK
****
This file was generated by PARSER (from files_GN.cpp)

@<TRIPOS>ATOM
      1 PA        -31.3515  -31.8322   14.8545 P.3         1 PAX       0.2972
      2 O1A       -32.2693  -32.9345   14.6864 O.co2       1 PAX      -0.6127
      3 O2A       -31.9930  -30.6317   14.3884 O.co2       1 PAX      -0.6127
      4 O5        -31.1576  -31.6069   16.3841 O.3         1 PAX      -0.2476
      5 PB        -29.9289  -32.1036   12.5969 P.3         1 PAX       0.2974
      6 O1B       -31.1713  -32.0384   11.8657 O.co2       1 PAX      -0.6127
      7 O2B       -29.1939  -30.9385   12.1788 O.co2       1 PAX      -0.6127
      8 O3A       -29.9676  -32.0425   14.1593 O.3         1 PAX      -0.1319
      9 PG        -29.5796  -28.5688   20.1909 P.3         1 PAX       0.2013
     10 O1G       -28.2904  -28.4217   20.8199 O.co2       1 PAX      -0.5537
     11 O2G       -29.6891  -27.6726   19.0674 O.co2       1 PAX      -0.5537
     12 O3G       -30.5514  -28.1600   21.1721 O.co2       1 PAX      -0.5537
     13 N9A       -26.6351  -32.9874   19.0592 N.pl3       1 PAX      -0.1919
     14 C4A       -25.6090  -32.8491   18.1939 C.ar        1 PAX       0.1613
     15 N3A       -25.3609  -31.9560   17.2020 N.ar        1 PAX      -0.2714
     16 C2A       -24.2204  -32.0342   16.4638 C.ar        1 PAX       0.0533
     17 N1A       -23.3106  -33.0105   16.7270 N.ar        1 PAX      -0.2698
     18 C6A       -23.5015  -33.9275   17.7151 C.ar        1 PAX       0.1298
     19 N6A       -22.5759  -34.8684   17.9469 N.pl3       1 PAX      -0.3152
     20 C5A       -24.6848  -33.8528   18.4723 C.ar        1 PAX       0.1045
     21 N7A       -25.1426  -34.5858   19.4925 N.2         1 PAX      -0.2958
     22 C8A       -26.3391  -34.0656   19.8170 C.2         1 PAX       0.1123
     23 C5        -30.3520  -32.5749   17.0885 C.3         1 PAX       0.1131
     24 C4        -30.0257  -32.0608   18.5176 C.3         1 PAX       0.1235
     25 O4        -29.0188  -32.9250   19.0800 O.3         1 PAX      -0.3360
     26 C1        -27.8054  -32.1740   19.2731 C.3         1 PAX       0.2013
     27 C2        -27.9631  -30.9026   18.4166 C.3         1 PAX       0.1432
     28 O2        -27.0770  -29.8584   18.8141 O.3         1 PAX      -0.3832
     29 C3        -29.4644  -30.6135   18.5867 C.3         1 PAX       0.1487
     30 O3        -29.8651  -30.0631   19.8661 O.3         1 PAX      -0.2674
     31 O5        -26.9759  -36.1467   14.0445 O.3         1 PAX      -0.2734
     32 C5        -27.5881  -36.7152   12.8676 C.3         1 PAX       0.1074
     33 C4        -28.2371  -35.5852   12.0125 C.3         1 PAX       0.1209
     34 O4        -29.1584  -36.1593   11.0684 O.3         1 PAX      -0.3391
     35 C1        -30.5062  -36.0798   11.5909 C.3         1 PAX       0.1760
     36 C2        -30.4010  -35.2801   12.9108 C.3         1 PAX       0.0362
     37 C3        -29.0652  -34.5338   12.7954 C.3         1 PAX       0.1284
     38 O3        -29.0928  -33.2995   12.0409 O.3         1 PAX      -0.2441
     39 PD        -27.1991  -36.8662   15.4033 P.3         1 PAX       0.2008
     40 O1D       -26.2070  -37.8798   15.6883 O.co2       1 PAX      -0.5537
     41 O2D       -28.5084  -37.4678   15.4599 O.co2       1 PAX      -0.5537
     42 O3D       -27.1428  -35.8693   16.4456 O.co2       1 PAX      -0.5537
     43 N1T       -31.2113  -37.3437   11.7855 N.am        1 PAX      -0.1736
     44 C6T       -30.5589  -38.5425   11.6964 C.2         1 PAX       0.0524
     45 C2T       -32.5209  -37.3606   12.1205 C.2         1 PAX       0.3265
     46 O2T       -33.2079  -36.3513   12.2039 O.2         1 PAX      -0.3843
     47 N3T       -33.1270  -38.5089   12.3981 N.am        1 PAX      -0.1859
     48 C4T       -32.4809  -39.6707   12.3602 C.2         1 PAX       0.1930
     49 O4T       -33.1232  -40.6672   12.6467 O.2         1 PAX      -0.4079
     50 C5T       -31.1492  -39.7164   12.0159 C.2         1 PAX       0.0225
     51 CM5       -30.3616  -40.9456   12.0066 C.3         1 PAX      -0.0437
     52 H1        -24.0502  -31.3571   15.7192 H           1 PAX       0.0996
     53 H2        -22.7055  -35.5204   18.6546 H           1 PAX       0.1820
     54 H3        -21.7688  -34.8956   17.4076 H           1 PAX       0.1820
     55 H4        -26.9281  -34.4224   20.5724 H           1 PAX       0.1349
     56 H5        -29.4073  -32.7677   16.5697 H           1 PAX       0.0648
     57 H6        -30.8942  -33.5225   17.1723 H           1 PAX       0.0648
     58 H7        -30.9364  -32.1417   19.1192 H           1 PAX       0.0654
     59 H8        -27.7916  -31.8557   20.3228 H           1 PAX       0.0996
     60 H9        -27.7720  -31.1196   17.3615 H           1 PAX       0.0680
     61 H10       -27.1371  -29.1930   18.0986 H           1 PAX       0.2101
     62 H11       -29.8414  -29.9966   17.7659 H           1 PAX       0.0704
     63 H12       -28.3591  -37.4566   13.1067 H           1 PAX       0.0639
     64 H13       -26.8071  -37.2153   12.2869 H           1 PAX       0.0639
     65 H14       -27.4349  -35.0902   11.4615 H           1 PAX       0.0653
     66 H15       -31.0623  -35.4874   10.8532 H           1 PAX       0.0959
     67 H16       -30.3585  -35.9568   13.7705 H           1 PAX       0.0348
     68 H17       -31.2516  -34.6151   13.0436 H           1 PAX       0.0348
     69 H18       -28.6400  -34.3397   13.7831 H           1 PAX       0.0686
     70 H19       -29.6085  -38.5656   11.4024 H           1 PAX       0.1011
     71 H20       -34.0642  -38.5004   12.6421 H           1 PAX       0.2259
     72 H21       -29.9412  -41.1099   11.0116 H           1 PAX       0.0296
     73 H22       -30.9447  -41.8281   12.2747 H           1 PAX       0.0296
     74 H23       -29.5419  -40.8588   12.7234 H           1 PAX       0.0296
@<TRIPOS>BOND
     1     1     2  ar
     2     1     3  ar
     3     1     4   1
     4     8     1   1
     5     4    23   1
     6     5     6  ar
     7     5     7  ar
     8     5     8   1
     9    38     5   1
    10     9    10  ar
    11     9    11  ar
    12     9    12  ar
    13    30     9   1
    14    13    14   1
    15    13    22   1
    16    26    13   1
    17    14    15  ar
    18    14    20  ar
    19    15    16  ar
    20    16    17  ar
    21    18    17  ar
    22    18    19   1
    23    20    18  ar
    24    21    20   1
    25    22    21   2
    26    23    24   1
    27    24    25   1
    28    24    29   1
    29    25    26   1
    30    27    26   1
    31    27    28   1
    32    29    27   1
    33    29    30   1
    34    32    31   1
    35    31    39   1
    36    33    32   1
    37    33    34   1
    38    37    33   1
    39    35    34   1
    40    36    35   1
    41    35    43   1
    42    37    36   1
    43    37    38   1
    44    39    40  ar
    45    39    41  ar
    46    39    42  ar
    47    43    44   1
    48    43    45  am
    49    44    50   2
    50    45    46   2
    51    45    47  am
    52    47    48  am
    53    48    49   2
    54    48    50   1
    55    50    51   1
    56    16    52   1
    57    19    53   1
    58    19    54   1
    59    22    55   1
    60    23    56   1
    61    23    57   1
    62    24    58   1
    63    26    59   1
    64    27    60   1
    65    28    61   1
    66    29    62   1
    67    32    63   1
    68    32    64   1
    69    33    65   1
    70    35    66   1
    71    36    67   1
    72    36    68   1
    73    37    69   1
    74    44    70   1
    75    47    71   1
    76    51    72   1
    77    51    73   1
    78    51    74   1
@<TRIPOS>SUBSTRUCTURE
     1  PAX     14

