@<TRIPOS>MOLECULE
1u1b_ligand_024
    74    78
SMALL
GAST_HUCK
****
This file was generated by PARSER (from files_GN.cpp)

@<TRIPOS>ATOM
      1 PA        -21.9719  -33.8651   14.1193 P.3         1 PAX       0.2972
      2 O1A       -22.0955  -35.2519   14.4996 O.co2       1 PAX      -0.6127
      3 O2A       -21.5911  -33.9029   12.7286 O.co2       1 PAX      -0.6127
      4 O5        -23.3719  -33.1759   14.1639 O.3         1 PAX      -0.2476
      5 PB        -20.8443  -33.1448   16.4137 P.3         1 PAX       0.2974
      6 O1B       -20.1636  -31.9636   16.8796 O.co2       1 PAX      -0.6127
      7 O2B       -22.1541  -33.0624   17.0031 O.co2       1 PAX      -0.6127
      8 O3A       -20.8513  -33.0723   14.8606 O.3         1 PAX      -0.1319
      9 PG        -26.3797  -34.0711   12.7228 P.3         1 PAX       0.2013
     10 O1G       -27.6154  -34.7535   12.4353 O.co2       1 PAX      -0.5537
     11 O2G       -25.3388  -34.7670   12.0069 O.co2       1 PAX      -0.5537
     12 O3G       -26.1634  -34.1883   14.1431 O.co2       1 PAX      -0.5537
     13 N9A       -25.7526  -28.0378   12.3694 N.pl3       1 PAX      -0.1919
     14 C4A       -26.5452  -27.0488   12.8326 C.ar        1 PAX       0.1613
     15 N3A       -27.6238  -27.0799   13.6573 N.ar        1 PAX      -0.2714
     16 C2A       -28.2550  -25.9224   13.9914 C.ar        1 PAX       0.0533
     17 N1A       -27.8134  -24.7333   13.4940 N.ar        1 PAX      -0.2698
     18 C6A       -26.7352  -24.6521   12.6701 C.ar        1 PAX       0.1298
     19 N6A       -26.3590  -23.4587   12.1869 N.pl3       1 PAX      -0.3152
     20 C5A       -26.0611  -25.8417   12.3303 C.ar        1 PAX       0.1045
     21 N7A       -24.9861  -26.0977   11.5756 N.2         1 PAX      -0.2958
     22 C8A       -24.8026  -27.4332   11.6174 C.2         1 PAX       0.1123
     23 C5        -23.3832  -31.7562   13.9005 C.3         1 PAX       0.1131
     24 C4        -24.8192  -31.2831   13.5694 C.3         1 PAX       0.1235
     25 O4        -24.8182  -29.8469   13.5554 O.3         1 PAX      -0.3360
     26 C1        -25.8732  -29.4374   12.6806 C.3         1 PAX       0.2013
     27 C2        -25.7427  -30.4174   11.4984 C.3         1 PAX       0.1432
     28 O2        -26.9328  -30.4660   10.7093 O.3         1 PAX      -0.3832
     29 C3        -25.3734  -31.7528   12.1888 C.3         1 PAX       0.1487
     30 O3        -26.5518  -32.5880   12.2823 O.3         1 PAX      -0.2674
     31 O5        -16.1469  -33.4340   15.3640 O.3         1 PAX      -0.2734
     32 C5        -17.3925  -33.6160   14.6427 C.3         1 PAX       0.1074
     33 C4        -18.2584  -34.7690   15.2325 C.3         1 PAX       0.1209
     34 O4        -17.5568  -36.0308   15.1742 O.3         1 PAX      -0.3391
     35 C1        -18.0149  -36.8424   16.2722 C.3         1 PAX       0.1760
     36 C2        -18.1520  -35.8056   17.4105 C.3         1 PAX       0.0362
     37 C3        -18.6786  -34.5340   16.7167 C.3         1 PAX       0.1284
     38 O3        -20.1120  -34.4273   16.9335 O.3         1 PAX      -0.2441
     39 PD        -14.8544  -34.0606   14.7661 P.3         1 PAX       0.2008
     40 O1D       -15.0352  -35.3403   14.1308 O.co2       1 PAX      -0.5537
     41 O2D       -13.8760  -34.2332   15.8117 O.co2       1 PAX      -0.5537
     42 O3D       -14.2666  -33.1608   13.8021 O.co2       1 PAX      -0.5537
     43 N1T       -17.1726  -37.9884   16.6123 N.am        1 PAX      -0.1736
     44 C6T       -17.5950  -38.8381   17.6031 C.2         1 PAX       0.0524
     45 C2T       -16.0170  -38.2898   15.9786 C.2         1 PAX       0.3265
     46 O2T       -15.5491  -37.6509   15.0476 O.2         1 PAX      -0.3843
     47 N3T       -15.3205  -39.3712   16.3296 N.am        1 PAX      -0.1859
     48 C4T       -15.7199  -40.1752   17.3073 C.2         1 PAX       0.1930
     49 O4T       -14.9940  -41.1250   17.5820 O.2         1 PAX      -0.4079
     50 C5T       -16.9042  -39.9430   17.9676 C.2         1 PAX       0.0225
     51 CM5       -17.4130  -40.8799   18.9687 C.3         1 PAX      -0.0437
     52 H1        -29.0646  -25.9445   14.6128 H           1 PAX       0.0996
     53 H2        -25.6109  -23.3939   11.5735 H           1 PAX       0.1820
     54 H3        -26.9105  -22.6790   12.3525 H           1 PAX       0.1820
     55 H4        -24.0351  -27.9049   11.1379 H           1 PAX       0.1349
     56 H5        -22.7273  -31.4819   13.0633 H           1 PAX       0.0648
     57 H6        -23.0471  -31.2241   14.7965 H           1 PAX       0.0648
     58 H7        -25.4836  -31.6023   14.3762 H           1 PAX       0.0654
     59 H8        -26.8332  -29.6212   13.1834 H           1 PAX       0.0996
     60 H9        -24.9167  -30.1146   10.8492 H           1 PAX       0.0680
     61 H10       -27.0281  -29.5647   10.3309 H           1 PAX       0.2101
     62 H11       -24.5997  -32.2400   11.5846 H           1 PAX       0.0704
     63 H12       -17.2543  -33.7738   13.5614 H           1 PAX       0.0639
     64 H13       -17.9549  -32.6857   14.7446 H           1 PAX       0.0639
     65 H14       -19.1480  -34.8706   14.6118 H           1 PAX       0.0653
     66 H15       -19.0077  -37.2292   16.0099 H           1 PAX       0.0959
     67 H16       -17.1633  -35.6172   17.8446 H           1 PAX       0.0348
     68 H17       -18.8228  -36.1516   18.2022 H           1 PAX       0.0348
     69 H18       -18.1611  -33.6787   17.1716 H           1 PAX       0.0686
     70 H19       -18.4558  -38.6502   18.0612 H           1 PAX       0.1011
     71 H20       -14.4962  -39.5732   15.8577 H           1 PAX       0.2259
     72 H21       -18.3826  -40.5785   19.3722 H           1 PAX       0.0296
     73 H22       -16.7087  -40.9569   19.7990 H           1 PAX       0.0296
     74 H23       -17.5314  -41.8648   18.5154 H           1 PAX       0.0296
@<TRIPOS>BOND
     1     1     2  ar
     2     1     3  ar
     3     1     4   1
     4     8     1   1
     5     4    23   1
     6     5     6  ar
     7     5     7  ar
     8     5     8   1
     9    38     5   1
    10     9    10  ar
    11     9    11  ar
    12     9    12  ar
    13    30     9   1
    14    13    14   1
    15    13    22   1
    16    26    13   1
    17    14    15  ar
    18    14    20  ar
    19    15    16  ar
    20    16    17  ar
    21    18    17  ar
    22    18    19   1
    23    20    18  ar
    24    21    20   1
    25    22    21   2
    26    23    24   1
    27    24    25   1
    28    24    29   1
    29    25    26   1
    30    27    26   1
    31    27    28   1
    32    29    27   1
    33    29    30   1
    34    32    31   1
    35    31    39   1
    36    33    32   1
    37    33    34   1
    38    37    33   1
    39    35    34   1
    40    36    35   1
    41    35    43   1
    42    37    36   1
    43    37    38   1
    44    39    40  ar
    45    39    41  ar
    46    39    42  ar
    47    43    44   1
    48    43    45  am
    49    44    50   2
    50    45    46   2
    51    45    47  am
    52    47    48  am
    53    48    49   2
    54    48    50   1
    55    50    51   1
    56    16    52   1
    57    19    53   1
    58    19    54   1
    59    22    55   1
    60    23    56   1
    61    23    57   1
    62    24    58   1
    63    26    59   1
    64    27    60   1
    65    28    61   1
    66    29    62   1
    67    32    63   1
    68    32    64   1
    69    33    65   1
    70    35    66   1
    71    36    67   1
    72    36    68   1
    73    37    69   1
    74    44    70   1
    75    47    71   1
    76    51    72   1
    77    51    73   1
    78    51    74   1
@<TRIPOS>SUBSTRUCTURE
     1  PAX     14

