@<TRIPOS>MOLECULE
1u1b_ligand_097
    74    78
SMALL
GAST_HUCK
****
This file was generated by PARSER (from files_GN.cpp)

@<TRIPOS>ATOM
      1 PA        -24.5802  -33.9435   18.7480 P.3         1 PAX       0.2972
      2 O1A       -24.1959  -34.3736   20.0752 O.co2       1 PAX      -0.6127
      3 O2A       -25.2717  -34.9526   17.9749 O.co2       1 PAX      -0.6127
      4 O5        -25.5045  -32.7017   18.7824 O.3         1 PAX      -0.2476
      5 PB        -21.9455  -33.9962   18.2475 P.3         1 PAX       0.2974
      6 O1B       -21.4636  -33.2616   19.3936 O.co2       1 PAX      -0.6127
      7 O2B       -21.9069  -35.4166   18.5224 O.co2       1 PAX      -0.6127
      8 O3A       -23.3646  -33.4456   17.9136 O.3         1 PAX      -0.1319
      9 PG        -28.6051  -28.9725   20.3048 P.3         1 PAX       0.2013
     10 O1G       -28.7502  -28.3732   21.6109 O.co2       1 PAX      -0.5537
     11 O2G       -27.1778  -28.9892   20.0600 O.co2       1 PAX      -0.5537
     12 O3G       -29.2098  -28.0755   19.3491 O.co2       1 PAX      -0.5537
     13 N9A       -29.3508  -31.1118   15.5525 N.pl3       1 PAX      -0.1919
     14 C4A       -29.1586  -30.3121   14.4897 C.ar        1 PAX       0.1613
     15 N3A       -28.5741  -29.0922   14.3709 N.ar        1 PAX      -0.2714
     16 C2A       -28.4801  -28.5012   13.1476 C.ar        1 PAX       0.0533
     17 N1A       -28.9761  -29.1226   12.0399 N.ar        1 PAX      -0.2698
     18 C6A       -29.5730  -30.3481   12.1121 C.ar        1 PAX       0.1298
     19 N6A       -30.0356  -30.9354   10.9988 N.pl3       1 PAX      -0.3152
     20 C5A       -29.6753  -30.9660   13.3683 C.ar        1 PAX       0.1045
     21 N7A       -30.1650  -32.1529   13.7591 N.2         1 PAX      -0.2958
     22 C8A       -29.9569  -32.2277   15.0867 C.2         1 PAX       0.1123
     23 C5        -26.8836  -32.8692   19.1579 C.3         1 PAX       0.1131
     24 C4        -27.6398  -31.6167   18.6599 C.3         1 PAX       0.1235
     25 O4        -27.8122  -31.7026   17.2393 O.3         1 PAX      -0.3360
     26 C1        -28.9177  -30.8564   16.9010 C.3         1 PAX       0.2013
     27 C2        -29.9490  -31.1649   18.0050 C.3         1 PAX       0.1432
     28 O2        -30.9647  -30.1706   18.1610 O.3         1 PAX      -0.3832
     29 C3        -29.0636  -31.3830   19.2563 C.3         1 PAX       0.1487
     30 O3        -29.2221  -30.4023   20.3164 O.3         1 PAX      -0.2674
     31 O5        -17.5015  -36.1178   16.3788 O.3         1 PAX      -0.2734
     32 C5        -17.8531  -35.4131   17.5882 C.3         1 PAX       0.1074
     33 C4        -18.6589  -34.1359   17.2358 C.3         1 PAX       0.1209
     34 O4        -17.8823  -33.3332   16.3221 O.3         1 PAX      -0.3391
     35 C1        -18.6830  -32.9896   15.1737 C.3         1 PAX       0.1760
     36 C2        -19.7349  -34.1143   15.0957 C.3         1 PAX       0.0362
     37 C3        -20.0245  -34.4456   16.5643 C.3         1 PAX       0.1284
     38 O3        -21.1098  -33.5924   16.9960 O.3         1 PAX      -0.2441
     39 PD        -16.6425  -37.4055   16.5334 P.3         1 PAX       0.2008
     40 O1D       -16.8960  -38.1321   17.7502 O.co2       1 PAX      -0.5537
     41 O2D       -15.2353  -37.1161   16.4072 O.co2       1 PAX      -0.5537
     42 O3D       -16.9966  -38.3031   15.4629 O.co2       1 PAX      -0.5537
     43 N1T       -17.9828  -32.8072   13.9075 N.am        1 PAX      -0.1736
     44 C6T       -18.7263  -32.5171   12.7912 C.2         1 PAX       0.0524
     45 C2T       -16.6523  -32.9699   13.7488 C.2         1 PAX       0.3265
     46 O2T       -15.8747  -33.2156   14.6623 O.2         1 PAX      -0.3843
     47 N3T       -16.1070  -32.8908   12.5406 N.am        1 PAX      -0.1859
     48 C4T       -16.8379  -32.6724   11.4505 C.2         1 PAX       0.1930
     49 O4T       -16.2498  -32.6264   10.3792 O.2         1 PAX      -0.4079
     50 C5T       -18.1987  -32.4955   11.5458 C.2         1 PAX       0.0225
     51 CM5       -19.0352  -32.3583   10.3569 C.3         1 PAX      -0.0437
     52 H1        -28.0328  -27.5874   13.0602 H           1 PAX       0.0996
     53 H2        -30.4547  -31.8097   11.0479 H           1 PAX       0.1820
     54 H3        -29.9442  -30.4925   10.1399 H           1 PAX       0.1820
     55 H4        -30.2161  -33.0389   15.6488 H           1 PAX       0.1349
     56 H5        -26.9711  -32.9315   20.2435 H           1 PAX       0.0648
     57 H6        -27.3292  -33.7645   18.7062 H           1 PAX       0.0648
     58 H7        -26.9923  -30.7553   18.8503 H           1 PAX       0.0654
     59 H8        -28.5975  -29.8121   16.9961 H           1 PAX       0.0996
     60 H9        -30.4591  -32.1005   17.7785 H           1 PAX       0.0680
     61 H10       -31.1131  -29.8106   17.2572 H           1 PAX       0.2101
     62 H11       -29.4009  -32.3130   19.7271 H           1 PAX       0.0704
     63 H12       -16.9644  -35.1179   18.1535 H           1 PAX       0.0639
     64 H13       -18.4801  -36.0464   18.2215 H           1 PAX       0.0639
     65 H14       -18.8158  -33.5571   18.1515 H           1 PAX       0.0653
     66 H15       -19.1912  -32.0498   15.4221 H           1 PAX       0.0959
     67 H16       -19.3128  -34.9892   14.5937 H           1 PAX       0.0348
     68 H17       -20.6376  -33.8026   14.5662 H           1 PAX       0.0348
     69 H18       -20.2993  -35.5062   16.6233 H           1 PAX       0.0686
     70 H19       -19.7040  -32.3586   12.8900 H           1 PAX       0.1011
     71 H20       -15.1472  -33.0075   12.4423 H           1 PAX       0.2259
     72 H21       -20.0910  -32.2125   10.5965 H           1 PAX       0.0296
     73 H22       -18.9535  -33.2604    9.7472 H           1 PAX       0.0296
     74 H23       -18.7059  -31.5051    9.7642 H           1 PAX       0.0296
@<TRIPOS>BOND
     1     1     2  ar
     2     1     3  ar
     3     1     4   1
     4     8     1   1
     5     4    23   1
     6     5     6  ar
     7     5     7  ar
     8     5     8   1
     9    38     5   1
    10     9    10  ar
    11     9    11  ar
    12     9    12  ar
    13    30     9   1
    14    13    14   1
    15    13    22   1
    16    26    13   1
    17    14    15  ar
    18    14    20  ar
    19    15    16  ar
    20    16    17  ar
    21    18    17  ar
    22    18    19   1
    23    20    18  ar
    24    21    20   1
    25    22    21   2
    26    23    24   1
    27    24    25   1
    28    24    29   1
    29    25    26   1
    30    27    26   1
    31    27    28   1
    32    29    27   1
    33    29    30   1
    34    32    31   1
    35    31    39   1
    36    33    32   1
    37    33    34   1
    38    37    33   1
    39    35    34   1
    40    36    35   1
    41    35    43   1
    42    37    36   1
    43    37    38   1
    44    39    40  ar
    45    39    41  ar
    46    39    42  ar
    47    43    44   1
    48    43    45  am
    49    44    50   2
    50    45    46   2
    51    45    47  am
    52    47    48  am
    53    48    49   2
    54    48    50   1
    55    50    51   1
    56    16    52   1
    57    19    53   1
    58    19    54   1
    59    22    55   1
    60    23    56   1
    61    23    57   1
    62    24    58   1
    63    26    59   1
    64    27    60   1
    65    28    61   1
    66    29    62   1
    67    32    63   1
    68    32    64   1
    69    33    65   1
    70    35    66   1
    71    36    67   1
    72    36    68   1
    73    37    69   1
    74    44    70   1
    75    47    71   1
    76    51    72   1
    77    51    73   1
    78    51    74   1
@<TRIPOS>SUBSTRUCTURE
     1  PAX     14

