@<TRIPOS>MOLECULE
1u1b_ligand_011
    74    78
SMALL
GAST_HUCK
****
This file was generated by PARSER (from files_GN.cpp)

@<TRIPOS>ATOM
      1 PA        -31.5190  -33.5668   16.7377 P.3         1 PAX       0.2972
      2 O1A       -31.3187  -34.9511   16.3881 O.co2       1 PAX      -0.6127
      3 O2A       -32.9541  -33.4686   16.8232 O.co2       1 PAX      -0.6127
      4 O5        -30.9357  -33.3200   18.1708 O.3         1 PAX      -0.2476
      5 PB        -30.0641  -32.9760   14.5749 P.3         1 PAX       0.2974
      6 O1B       -28.7810  -33.3915   15.0891 O.co2       1 PAX      -0.6127
      7 O2B       -30.5999  -34.0808   13.8230 O.co2       1 PAX      -0.6127
      8 O3A       -31.1106  -32.5299   15.6419 O.3         1 PAX      -0.1319
      9 PG        -27.3339  -32.6261   18.4145 P.3         1 PAX       0.2013
     10 O1G       -27.0507  -32.6498   16.9990 O.co2       1 PAX      -0.5537
     11 O2G       -26.0940  -33.0385   19.0398 O.co2       1 PAX      -0.5537
     12 O3G       -28.3568  -33.6117   18.6595 O.co2       1 PAX      -0.5537
     13 N9A       -30.3414  -27.4467   19.1610 N.pl3       1 PAX      -0.1919
     14 C4A       -30.3081  -26.3357   18.3999 C.ar        1 PAX       0.1613
     15 N3A       -29.7555  -26.0973   17.1819 N.ar        1 PAX      -0.2714
     16 C2A       -29.8856  -24.8685   16.6085 C.ar        1 PAX       0.0533
     17 N1A       -30.5585  -23.8754   17.2506 N.ar        1 PAX      -0.2698
     18 C6A       -31.1282  -24.0710   18.4726 C.ar        1 PAX       0.1298
     19 N6A       -31.7898  -23.0671   19.0780 N.pl3       1 PAX      -0.3152
     20 C5A       -31.0058  -25.3371   19.0750 C.ar        1 PAX       0.1045
     21 N7A       -31.4698  -25.8427   20.2259 N.2         1 PAX      -0.2958
     22 C8A       -31.0601  -27.1240   20.2604 C.2         1 PAX       0.1123
     23 C5        -31.2174  -32.0608   18.8242 C.3         1 PAX       0.1131
     24 C4        -30.1571  -30.9650   18.5231 C.3         1 PAX       0.1235
     25 O4        -30.8057  -29.6855   18.5934 O.3         1 PAX      -0.3360
     26 C1        -29.7769  -28.7250   18.8240 C.3         1 PAX       0.2013
     27 C2        -28.9344  -29.4049   19.9207 C.3         1 PAX       0.1432
     28 O2        -27.6510  -28.7986   20.0430 O.3         1 PAX      -0.3832
     29 C3        -28.9225  -30.8872   19.4794 C.3         1 PAX       0.1487
     30 O3        -27.6804  -31.1585   18.7869 O.3         1 PAX      -0.2674
     31 O5        -30.3426  -27.1994   12.0266 O.3         1 PAX      -0.2734
     32 C5        -30.7552  -28.2327   12.9455 C.3         1 PAX       0.1074
     33 C4        -30.1341  -29.6367   12.6469 C.3         1 PAX       0.1209
     34 O4        -28.9505  -29.5024   11.8521 O.3         1 PAX      -0.3391
     35 C1        -27.7865  -29.7631   12.6462 C.3         1 PAX       0.1760
     36 C2        -28.2584  -30.0848   14.0857 C.3         1 PAX       0.0362
     37 C3        -29.7319  -30.4868   13.8813 C.3         1 PAX       0.1284
     38 O3        -29.8867  -31.8716   13.4918 O.3         1 PAX      -0.2441
     39 PD        -30.8047  -27.2632   10.5449 P.3         1 PAX       0.2008
     40 O1D       -29.8906  -26.4302    9.7979 O.co2       1 PAX      -0.5537
     41 O2D       -32.1261  -26.6992   10.3713 O.co2       1 PAX      -0.5537
     42 O3D       -30.7374  -28.5802    9.9613 O.co2       1 PAX      -0.5537
     43 N1T       -26.8471  -28.6647   12.4321 N.am        1 PAX      -0.1736
     44 C6T       -27.0537  -27.4433   13.0191 C.2         1 PAX       0.0524
     45 C2T       -25.8344  -28.7678   11.5426 C.2         1 PAX       0.3265
     46 O2T       -25.5723  -29.7863   10.9171 O.2         1 PAX      -0.3843
     47 N3T       -25.0753  -27.7135   11.2552 N.am        1 PAX      -0.1859
     48 C4T       -25.2691  -26.5336   11.8357 C.2         1 PAX       0.1930
     49 O4T       -24.5265  -25.6229   11.4929 O.2         1 PAX      -0.4079
     50 C5T       -26.2674  -26.3691   12.7663 C.2         1 PAX       0.0225
     51 CM5       -26.4531  -25.0857   13.4375 C.3         1 PAX      -0.0437
     52 H1        -29.4778  -24.6957   15.6892 H           1 PAX       0.0996
     53 H2        -32.1950  -23.2052   19.9490 H           1 PAX       0.1820
     54 H3        -31.8651  -22.2038   18.6406 H           1 PAX       0.1820
     55 H4        -31.2773  -27.7582   21.0309 H           1 PAX       0.1349
     56 H5        -31.2296  -32.2646   19.8951 H           1 PAX       0.0648
     57 H6        -32.2198  -31.6825   18.5885 H           1 PAX       0.0648
     58 H7        -29.8147  -31.0974   17.4948 H           1 PAX       0.0654
     59 H8        -29.1719  -28.6271   17.9109 H           1 PAX       0.0996
     60 H9        -29.4384  -29.3203   20.8889 H           1 PAX       0.0680
     61 H10       -27.8353  -27.9136   20.4188 H           1 PAX       0.2101
     62 H11       -29.0389  -31.5116   20.3718 H           1 PAX       0.0704
     63 H12       -31.8489  -28.3087   13.0025 H           1 PAX       0.0639
     64 H13       -30.4167  -27.8917   13.9255 H           1 PAX       0.0639
     65 H14       -30.8589  -30.1846   12.0417 H           1 PAX       0.0653
     66 H15       -27.3912  -30.7103   12.2597 H           1 PAX       0.0959
     67 H16       -28.2002  -29.2140   14.7354 H           1 PAX       0.0348
     68 H17       -27.6740  -30.8908   14.5354 H           1 PAX       0.0348
     69 H18       -30.3504  -30.2282   14.7514 H           1 PAX       0.0686
     70 H19       -27.8132  -27.3349   13.6500 H           1 PAX       0.1011
     71 H20       -24.3723  -27.8031   10.5896 H           1 PAX       0.2259
     72 H21       -27.2508  -25.1076   14.1803 H           1 PAX       0.0296
     73 H22       -26.6997  -24.3159   12.7020 H           1 PAX       0.0296
     74 H23       -25.5313  -24.8019   13.9519 H           1 PAX       0.0296
@<TRIPOS>BOND
     1     1     2  ar
     2     1     3  ar
     3     1     4   1
     4     8     1   1
     5     4    23   1
     6     5     6  ar
     7     5     7  ar
     8     5     8   1
     9    38     5   1
    10     9    10  ar
    11     9    11  ar
    12     9    12  ar
    13    30     9   1
    14    13    14   1
    15    13    22   1
    16    26    13   1
    17    14    15  ar
    18    14    20  ar
    19    15    16  ar
    20    16    17  ar
    21    18    17  ar
    22    18    19   1
    23    20    18  ar
    24    21    20   1
    25    22    21   2
    26    23    24   1
    27    24    25   1
    28    24    29   1
    29    25    26   1
    30    27    26   1
    31    27    28   1
    32    29    27   1
    33    29    30   1
    34    32    31   1
    35    31    39   1
    36    33    32   1
    37    33    34   1
    38    37    33   1
    39    35    34   1
    40    36    35   1
    41    35    43   1
    42    37    36   1
    43    37    38   1
    44    39    40  ar
    45    39    41  ar
    46    39    42  ar
    47    43    44   1
    48    43    45  am
    49    44    50   2
    50    45    46   2
    51    45    47  am
    52    47    48  am
    53    48    49   2
    54    48    50   1
    55    50    51   1
    56    16    52   1
    57    19    53   1
    58    19    54   1
    59    22    55   1
    60    23    56   1
    61    23    57   1
    62    24    58   1
    63    26    59   1
    64    27    60   1
    65    28    61   1
    66    29    62   1
    67    32    63   1
    68    32    64   1
    69    33    65   1
    70    35    66   1
    71    36    67   1
    72    36    68   1
    73    37    69   1
    74    44    70   1
    75    47    71   1
    76    51    72   1
    77    51    73   1
    78    51    74   1
@<TRIPOS>SUBSTRUCTURE
     1  PAX     14

