@<TRIPOS>MOLECULE
1u1b_ligand_076
    74    78
SMALL
GAST_HUCK
****
This file was generated by PARSER (from files_GN.cpp)

@<TRIPOS>ATOM
      1 PA        -31.8944  -32.8024   18.2150 P.3         1 PAX       0.2972
      2 O1A       -31.5623  -31.8708   19.2662 O.co2       1 PAX      -0.6127
      3 O2A       -32.4274  -32.0838   17.0801 O.co2       1 PAX      -0.6127
      4 O5        -30.5472  -33.5397   17.9117 O.3         1 PAX      -0.2476
      5 PB        -34.2788  -33.4611   19.2109 P.3         1 PAX       0.2974
      6 O1B       -34.8865  -34.6522   19.7510 O.co2       1 PAX      -0.6127
      7 O2B       -34.1594  -32.5488   20.3169 O.co2       1 PAX      -0.6127
      8 O3A       -32.8566  -33.9039   18.7561 O.3         1 PAX      -0.1319
      9 PG        -25.6280  -33.0098   16.6437 P.3         1 PAX       0.2013
     10 O1G       -26.4279  -33.9681   15.9129 O.co2       1 PAX      -0.5537
     11 O2G       -24.6129  -32.4991   15.7511 O.co2       1 PAX      -0.5537
     12 O3G       -24.9387  -33.6739   17.7261 O.co2       1 PAX      -0.5537
     13 N9A       -29.7107  -29.0627   18.8980 N.pl3       1 PAX      -0.1919
     14 C4A       -29.6610  -28.7649   20.2105 C.ar        1 PAX       0.1613
     15 N3A       -28.8398  -29.1768   21.2072 N.ar        1 PAX      -0.2714
     16 C2A       -28.9926  -28.7187   22.4740 C.ar        1 PAX       0.0533
     17 N1A       -29.9842  -27.8298   22.7530 N.ar        1 PAX      -0.2698
     18 C6A       -30.8370  -27.3723   21.7909 C.ar        1 PAX       0.1298
     19 N6A       -31.7843  -26.4757   22.1145 N.pl3       1 PAX      -0.3152
     20 C5A       -30.6764  -27.8468   20.4808 C.ar        1 PAX       0.1045
     21 N7A       -31.3258  -27.5829   19.3357 N.2         1 PAX      -0.2958
     22 C8A       -30.7205  -28.3230   18.3884 C.2         1 PAX       0.1123
     23 C5        -29.7681  -33.1799   16.7466 C.3         1 PAX       0.1131
     24 C4        -28.8803  -31.9137   16.8795 C.3         1 PAX       0.1235
     25 O4        -29.6800  -30.7984   17.2986 O.3         1 PAX      -0.3360
     26 C1        -28.8702  -29.9333   18.1143 C.3         1 PAX       0.2013
     27 C2        -27.9467  -30.9078   18.8734 C.3         1 PAX       0.1432
     28 O2        -26.7690  -30.2423   19.3341 O.3         1 PAX      -0.3832
     29 C3        -27.6789  -32.0377   17.8601 C.3         1 PAX       0.1487
     30 O3        -26.4240  -31.7896   17.1765 O.3         1 PAX      -0.2674
     31 O5        -39.7198  -32.8574   18.9895 O.3         1 PAX      -0.2734
     32 C5        -38.5805  -32.5838   18.1459 C.3         1 PAX       0.1074
     33 C4        -37.4690  -33.6691   18.1864 C.3         1 PAX       0.1209
     34 O4        -37.9637  -34.8993   17.6472 O.3         1 PAX      -0.3391
     35 C1        -36.8454  -35.6833   17.1716 C.3         1 PAX       0.1760
     36 C2        -35.9151  -34.6076   16.5556 C.3         1 PAX       0.0362
     37 C3        -36.2077  -33.3213   17.3583 C.3         1 PAX       0.1284
     38 O3        -35.1135  -32.7355   18.1038 O.3         1 PAX      -0.2441
     39 PD        -39.5799  -32.5779   20.5176 P.3         1 PAX       0.2008
     40 O1D       -39.0601  -31.2635   20.8092 O.co2       1 PAX      -0.5537
     41 O2D       -38.7947  -33.5832   21.1912 O.co2       1 PAX      -0.5537
     42 O3D       -40.9050  -32.6411   21.0874 O.co2       1 PAX      -0.5537
     43 N1T       -37.1926  -36.8040   16.2948 N.am        1 PAX      -0.1736
     44 C6T       -38.4927  -37.2208   16.1828 C.2         1 PAX       0.0524
     45 C2T       -36.2458  -37.5307   15.6636 C.2         1 PAX       0.3265
     46 O2T       -35.0445  -37.3078   15.7498 O.2         1 PAX      -0.3843
     47 N3T       -36.5871  -38.5558   14.8906 N.am        1 PAX      -0.1859
     48 C4T       -37.8538  -38.9394   14.7519 C.2         1 PAX       0.1930
     49 O4T       -38.0651  -39.8794   14.0004 O.2         1 PAX      -0.4079
     50 C5T       -38.8532  -38.2907   15.4393 C.2         1 PAX       0.0225
     51 CM5       -40.2405  -38.7516   15.4393 C.3         1 PAX      -0.0437
     52 H1        -28.3737  -29.0469   23.2125 H           1 PAX       0.0996
     53 H2        -32.3930  -26.1433   21.4380 H           1 PAX       0.1820
     54 H3        -31.8302  -26.1343   23.0195 H           1 PAX       0.1820
     55 H4        -31.0065  -28.3191   17.4041 H           1 PAX       0.1349
     56 H5        -30.4021  -33.0871   15.8637 H           1 PAX       0.0648
     57 H6        -29.1053  -34.0245   16.5533 H           1 PAX       0.0648
     58 H7        -28.5047  -31.6756   15.8800 H           1 PAX       0.0654
     59 H8        -28.2636  -29.3014   17.4472 H           1 PAX       0.0996
     60 H9        -28.4832  -31.3273   19.7294 H           1 PAX       0.0680
     61 H10       -26.3301  -30.8823   19.9396 H           1 PAX       0.2101
     62 H11       -27.6865  -32.9920   18.4041 H           1 PAX       0.0704
     63 H12       -38.1530  -31.5942   18.3479 H           1 PAX       0.0639
     64 H13       -38.9762  -32.5446   17.1263 H           1 PAX       0.0639
     65 H14       -37.1910  -33.8455   19.2154 H           1 PAX       0.0653
     66 H15       -36.3467  -36.1111   18.0521 H           1 PAX       0.0959
     67 H16       -36.1702  -34.4624   15.4959 H           1 PAX       0.0348
     68 H17       -34.8601  -34.8907   16.6292 H           1 PAX       0.0348
     69 H18       -36.4690  -32.5492   16.6246 H           1 PAX       0.0686
     70 H19       -39.2077  -36.7489   16.6869 H           1 PAX       0.1011
     71 H20       -35.8920  -39.0424   14.4155 H           1 PAX       0.2259
     72 H21       -40.5356  -39.0204   16.4540 H           1 PAX       0.0296
     73 H22       -40.4033  -39.6244   14.8051 H           1 PAX       0.0296
     74 H23       -40.8933  -37.9546   15.0808 H           1 PAX       0.0296
@<TRIPOS>BOND
     1     1     2  ar
     2     1     3  ar
     3     1     4   1
     4     8     1   1
     5     4    23   1
     6     5     6  ar
     7     5     7  ar
     8     5     8   1
     9    38     5   1
    10     9    10  ar
    11     9    11  ar
    12     9    12  ar
    13    30     9   1
    14    13    14   1
    15    13    22   1
    16    26    13   1
    17    14    15  ar
    18    14    20  ar
    19    15    16  ar
    20    16    17  ar
    21    18    17  ar
    22    18    19   1
    23    20    18  ar
    24    21    20   1
    25    22    21   2
    26    23    24   1
    27    24    25   1
    28    24    29   1
    29    25    26   1
    30    27    26   1
    31    27    28   1
    32    29    27   1
    33    29    30   1
    34    32    31   1
    35    31    39   1
    36    33    32   1
    37    33    34   1
    38    37    33   1
    39    35    34   1
    40    36    35   1
    41    35    43   1
    42    37    36   1
    43    37    38   1
    44    39    40  ar
    45    39    41  ar
    46    39    42  ar
    47    43    44   1
    48    43    45  am
    49    44    50   2
    50    45    46   2
    51    45    47  am
    52    47    48  am
    53    48    49   2
    54    48    50   1
    55    50    51   1
    56    16    52   1
    57    19    53   1
    58    19    54   1
    59    22    55   1
    60    23    56   1
    61    23    57   1
    62    24    58   1
    63    26    59   1
    64    27    60   1
    65    28    61   1
    66    29    62   1
    67    32    63   1
    68    32    64   1
    69    33    65   1
    70    35    66   1
    71    36    67   1
    72    36    68   1
    73    37    69   1
    74    44    70   1
    75    47    71   1
    76    51    72   1
    77    51    73   1
    78    51    74   1
@<TRIPOS>SUBSTRUCTURE
     1  PAX     14

