@<TRIPOS>MOLECULE
1u1b_ligand_070
    74    78
SMALL
GAST_HUCK
****
This file was generated by PARSER (from files_GN.cpp)

@<TRIPOS>ATOM
      1 PA        -24.0908  -33.2999   12.7559 P.3         1 PAX       0.2972
      2 O1A       -24.4068  -34.3079   11.7694 O.co2       1 PAX      -0.6127
      3 O2A       -24.6081  -32.0509   12.2445 O.co2       1 PAX      -0.6127
      4 O5        -24.8805  -33.7627   14.0194 O.3         1 PAX      -0.2476
      5 PB        -21.6167  -32.9229   11.8555 P.3         1 PAX       0.2974
      6 O1B       -21.9351  -33.6395   10.6397 O.co2       1 PAX      -0.6127
      7 O2B       -21.7131  -31.5178   11.5243 O.co2       1 PAX      -0.6127
      8 O3A       -22.5522  -33.3151   13.0370 O.3         1 PAX      -0.1319
      9 PG        -27.1808  -36.7980   15.1727 P.3         1 PAX       0.2013
     10 O1G       -28.4923  -37.3670   14.9727 O.co2       1 PAX      -0.5537
     11 O2G       -26.6096  -36.4147   13.9014 O.co2       1 PAX      -0.5537
     12 O3G       -26.3531  -37.8623   15.6913 O.co2       1 PAX      -0.5537
     13 N9A       -28.4550  -31.7261   18.2932 N.pl3       1 PAX      -0.1919
     14 C4A       -28.8741  -30.5968   17.6933 C.ar        1 PAX       0.1613
     15 N3A       -28.7375  -30.1510   16.4175 N.ar        1 PAX      -0.2714
     16 C2A       -29.2567  -28.9470   16.0634 C.ar        1 PAX       0.0533
     17 N1A       -29.9030  -28.1786   16.9849 N.ar        1 PAX      -0.2698
     18 C6A       -30.0639  -28.5850   18.2764 C.ar        1 PAX       0.1298
     19 N6A       -30.6915  -27.7889   19.1538 N.pl3       1 PAX      -0.3152
     20 C5A       -29.5447  -29.8353   18.6495 C.ar        1 PAX       0.1045
     21 N7A       -29.5416  -30.5135   19.8071 N.2         1 PAX      -0.2958
     22 C8A       -28.8665  -31.6526   19.5785 C.2         1 PAX       0.1123
     23 C5        -25.7373  -32.7985   14.6635 C.3         1 PAX       0.1131
     24 C4        -26.3030  -33.3950   15.9744 C.3         1 PAX       0.1235
     25 O4        -26.6780  -32.3132   16.8449 O.3         1 PAX      -0.3360
     26 C1        -27.7189  -32.8040   17.6938 C.3         1 PAX       0.2013
     27 C2        -28.5822  -33.6870   16.7738 C.3         1 PAX       0.1432
     28 O2        -29.3619  -34.6030   17.5411 O.3         1 PAX      -0.3832
     29 C3        -27.5512  -34.3155   15.8130 C.3         1 PAX       0.1487
     30 O3        -27.2137  -35.6610   16.2333 O.3         1 PAX      -0.2674
     31 O5        -19.6894  -32.5420   16.9224 O.3         1 PAX      -0.2734
     32 C5        -20.2886  -32.8798   15.6436 C.3         1 PAX       0.1074
     33 C4        -19.3797  -32.6995   14.3917 C.3         1 PAX       0.1209
     34 O4        -17.9852  -32.7222   14.7323 O.3         1 PAX      -0.3391
     35 C1        -17.2729  -33.1726   13.5727 C.3         1 PAX       0.1760
     36 C2        -18.1648  -34.3015   13.0114 C.3         1 PAX       0.0362
     37 C3        -19.5937  -33.7683   13.2681 C.3         1 PAX       0.1284
     38 O3        -20.0966  -33.2265   12.0223 O.3         1 PAX      -0.2441
     39 PD        -18.7195  -33.5809   17.5825 P.3         1 PAX       0.2008
     40 O1D       -18.5691  -33.2619   18.9851 O.co2       1 PAX      -0.5537
     41 O2D       -17.3842  -33.5052   17.0387 O.co2       1 PAX      -0.5537
     42 O3D       -19.1742  -34.9516   17.5445 O.co2       1 PAX      -0.5537
     43 N1T       -15.9017  -33.5139   13.9349 N.am        1 PAX      -0.1736
     44 C6T       -14.8583  -32.8127   13.3885 C.2         1 PAX       0.0524
     45 C2T       -15.6174  -34.4316   14.8866 C.2         1 PAX       0.3265
     46 O2T       -16.4647  -35.0943   15.4672 O.2         1 PAX      -0.3843
     47 N3T       -14.3598  -34.6208   15.2785 N.am        1 PAX      -0.1859
     48 C4T       -13.3540  -33.9195   14.7695 C.2         1 PAX       0.1930
     49 O4T       -12.2368  -34.1397   15.2271 O.2         1 PAX      -0.4079
     50 C5T       -13.5752  -32.9788   13.7932 C.2         1 PAX       0.0225
     51 CM5       -12.4861  -32.1610   13.2634 C.3         1 PAX      -0.0437
     52 H1        -29.1513  -28.6104   15.1046 H           1 PAX       0.0996
     53 H2        -30.7992  -28.0688   20.0771 H           1 PAX       0.1820
     54 H3        -31.0294  -26.9249   18.8700 H           1 PAX       0.1820
     55 H4        -28.7006  -32.3670   20.2913 H           1 PAX       0.1349
     56 H5        -26.5802  -32.5430   14.0102 H           1 PAX       0.0648
     57 H6        -25.1890  -31.8845   14.9053 H           1 PAX       0.0648
     58 H7        -25.4930  -33.9431   16.4680 H           1 PAX       0.0654
     59 H8        -27.2631  -33.4272   18.4733 H           1 PAX       0.0996
     60 H9        -29.2736  -33.0642   16.1990 H           1 PAX       0.0680
     61 H10       -29.5434  -35.3544   16.9366 H           1 PAX       0.2101
     62 H11       -27.9564  -34.2574   14.7967 H           1 PAX       0.0704
     63 H12       -21.1288  -32.1906   15.5301 H           1 PAX       0.0639
     64 H13       -20.7274  -33.8771   15.6727 H           1 PAX       0.0639
     65 H14       -19.5710  -31.7030   13.9732 H           1 PAX       0.0653
     66 H15       -17.2881  -32.3559   12.8316 H           1 PAX       0.0959
     67 H16       -18.0090  -35.2375   13.5518 H           1 PAX       0.0348
     68 H17       -17.9586  -34.4783   11.9500 H           1 PAX       0.0348
     69 H18       -20.2193  -34.6120   13.5902 H           1 PAX       0.0686
     70 H19       -15.0433  -32.1330   12.6869 H           1 PAX       0.1011
     71 H20       -14.1790  -35.2750   15.9736 H           1 PAX       0.2259
     72 H21       -12.8210  -31.4471   12.5062 H           1 PAX       0.0296
     73 H22       -11.7299  -32.8048   12.8078 H           1 PAX       0.0296
     74 H23       -12.0227  -31.5925   14.0744 H           1 PAX       0.0296
@<TRIPOS>BOND
     1     1     2  ar
     2     1     3  ar
     3     1     4   1
     4     8     1   1
     5     4    23   1
     6     5     6  ar
     7     5     7  ar
     8     5     8   1
     9    38     5   1
    10     9    10  ar
    11     9    11  ar
    12     9    12  ar
    13    30     9   1
    14    13    14   1
    15    13    22   1
    16    26    13   1
    17    14    15  ar
    18    14    20  ar
    19    15    16  ar
    20    16    17  ar
    21    18    17  ar
    22    18    19   1
    23    20    18  ar
    24    21    20   1
    25    22    21   2
    26    23    24   1
    27    24    25   1
    28    24    29   1
    29    25    26   1
    30    27    26   1
    31    27    28   1
    32    29    27   1
    33    29    30   1
    34    32    31   1
    35    31    39   1
    36    33    32   1
    37    33    34   1
    38    37    33   1
    39    35    34   1
    40    36    35   1
    41    35    43   1
    42    37    36   1
    43    37    38   1
    44    39    40  ar
    45    39    41  ar
    46    39    42  ar
    47    43    44   1
    48    43    45  am
    49    44    50   2
    50    45    46   2
    51    45    47  am
    52    47    48  am
    53    48    49   2
    54    48    50   1
    55    50    51   1
    56    16    52   1
    57    19    53   1
    58    19    54   1
    59    22    55   1
    60    23    56   1
    61    23    57   1
    62    24    58   1
    63    26    59   1
    64    27    60   1
    65    28    61   1
    66    29    62   1
    67    32    63   1
    68    32    64   1
    69    33    65   1
    70    35    66   1
    71    36    67   1
    72    36    68   1
    73    37    69   1
    74    44    70   1
    75    47    71   1
    76    51    72   1
    77    51    73   1
    78    51    74   1
@<TRIPOS>SUBSTRUCTURE
     1  PAX     14

