@<TRIPOS>MOLECULE
1u1b_ligand_005
    74    78
SMALL
GAST_HUCK
****
This file was generated by PARSER (from files_GN.cpp)

@<TRIPOS>ATOM
      1 PA        -31.9839  -34.2447   14.7903 P.3         1 PAX       0.2972
      2 O1A       -31.1301  -33.0925   14.6796 O.co2       1 PAX      -0.6127
      3 O2A       -32.4820  -34.4989   13.4536 O.co2       1 PAX      -0.6127
      4 O5        -31.1876  -35.4966   15.2758 O.3         1 PAX      -0.2476
      5 PB        -34.2208  -34.9661   16.0513 P.3         1 PAX       0.2974
      6 O1B       -35.3266  -34.7589   15.1451 O.co2       1 PAX      -0.6127
      7 O2B       -33.8112  -36.3411   15.9065 O.co2       1 PAX      -0.6127
      8 O3A       -33.1113  -33.9020   15.7971 O.3         1 PAX      -0.1319
      9 PG        -26.9834  -37.1784   14.5429 P.3         1 PAX       0.2013
     10 O1G       -26.2742  -38.1761   15.3029 O.co2       1 PAX      -0.5537
     11 O2G       -28.3673  -37.5775   14.4330 O.co2       1 PAX      -0.5537
     12 O3G       -26.3983  -37.1432   13.2285 O.co2       1 PAX      -0.5537
     13 N9A       -27.2078  -31.9748   17.5833 N.pl3       1 PAX      -0.1919
     14 C4A       -28.1231  -31.0733   17.9859 C.ar        1 PAX       0.1613
     15 N3A       -29.4233  -30.8790   17.6404 N.ar        1 PAX      -0.2714
     16 C2A       -30.1270  -29.8506   18.1855 C.ar        1 PAX       0.0533
     17 N1A       -29.5432  -29.0293   19.1038 N.ar        1 PAX      -0.2698
     18 C6A       -28.2488  -29.1895   19.4863 C.ar        1 PAX       0.1298
     19 N6A       -27.7246  -28.3768   20.4154 N.pl3       1 PAX      -0.3152
     20 C5A       -27.5002  -30.2165   18.8895 C.ar        1 PAX       0.1045
     21 N7A       -26.2095  -30.5520   18.9833 N.2         1 PAX      -0.2958
     22 C8A       -26.0449  -31.6189   18.1791 C.2         1 PAX       0.1123
     23 C5        -30.2420  -35.3332   16.3585 C.3         1 PAX       0.1131
     24 C4        -28.8842  -34.7059   15.9017 C.3         1 PAX       0.1235
     25 O4        -28.7696  -33.3545   16.3845 O.3         1 PAX      -0.3360
     26 C1        -27.3888  -33.0815   16.6768 C.3         1 PAX       0.2013
     27 C2        -26.8815  -34.4253   17.2346 C.3         1 PAX       0.1432
     28 O2        -25.4580  -34.5485   17.1923 O.3         1 PAX      -0.3832
     29 C3        -27.5998  -35.4636   16.3566 C.3         1 PAX       0.1487
     30 O3        -26.7696  -35.7900   15.2151 O.3         1 PAX      -0.2674
     31 O5        -34.8967  -30.3385   18.8776 O.3         1 PAX      -0.2734
     32 C5        -34.1554  -31.1495   17.9383 C.3         1 PAX       0.1074
     33 C4        -34.0534  -32.6116   18.4558 C.3         1 PAX       0.1209
     34 O4        -34.0068  -32.5915   19.8906 O.3         1 PAX      -0.3391
     35 C1        -34.8879  -33.6046   20.3893 C.3         1 PAX       0.1760
     36 C2        -35.9665  -33.7885   19.3059 C.3         1 PAX       0.0362
     37 C3        -35.2017  -33.5576   17.9968 C.3         1 PAX       0.1284
     38 O3        -34.7400  -34.8488   17.5193 O.3         1 PAX      -0.2441
     39 PD        -34.9323  -28.8065   18.6135 P.3         1 PAX       0.2008
     40 O1D       -33.6177  -28.2225   18.5006 O.co2       1 PAX      -0.5537
     41 O2D       -35.5640  -28.1824   19.7503 O.co2       1 PAX      -0.5537
     42 O3D       -35.7158  -28.4891   17.4444 O.co2       1 PAX      -0.5537
     43 N1T       -35.4717  -33.2711   21.6768 N.am        1 PAX      -0.1736
     44 C6T       -35.7436  -31.9692   21.9963 C.2         1 PAX       0.0524
     45 C2T       -35.8360  -34.2346   22.5461 C.2         1 PAX       0.3265
     46 O2T       -35.6765  -35.4287   22.3346 O.2         1 PAX      -0.3843
     47 N3T       -36.4192  -33.9105   23.6943 N.am        1 PAX      -0.1859
     48 C4T       -36.6675  -32.6458   24.0191 C.2         1 PAX       0.1930
     49 O4T       -37.1988  -32.4438   25.1014 O.2         1 PAX      -0.4079
     50 C5T       -36.3364  -31.6224   23.1627 C.2         1 PAX       0.0225
     51 CM5       -36.6220  -30.2309   23.4967 C.3         1 PAX      -0.0437
     52 H1        -31.0885  -29.6789   17.8999 H           1 PAX       0.0996
     53 H2        -26.8204  -28.5158   20.7429 H           1 PAX       0.1820
     54 H3        -28.2546  -27.6477   20.7670 H           1 PAX       0.1820
     55 H4        -25.1469  -32.0878   18.0496 H           1 PAX       0.1349
     56 H5        -30.0740  -36.3467   16.7245 H           1 PAX       0.0648
     57 H6        -30.6619  -34.7758   17.2029 H           1 PAX       0.0648
     58 H7        -28.8875  -34.6463   14.8085 H           1 PAX       0.0654
     59 H8        -26.8671  -32.8523   15.7419 H           1 PAX       0.0996
     60 H9        -27.2069  -34.5325   18.2757 H           1 PAX       0.0680
     61 H10       -25.2634  -35.4443   17.5343 H           1 PAX       0.2101
     62 H11       -27.8076  -36.3387   16.9815 H           1 PAX       0.0704
     63 H12       -33.1345  -30.7770   17.8450 H           1 PAX       0.0639
     64 H13       -34.6216  -31.1241   16.9464 H           1 PAX       0.0639
     65 H14       -33.0916  -33.0275   18.1419 H           1 PAX       0.0653
     66 H15       -34.2849  -34.5193   20.4547 H           1 PAX       0.0959
     67 H16       -36.7526  -33.0347   19.4149 H           1 PAX       0.0348
     68 H17       -36.4228  -34.7836   19.3555 H           1 PAX       0.0348
     69 H18       -35.8819  -33.0893   17.2744 H           1 PAX       0.0686
     70 H19       -35.5123  -31.2497   21.3499 H           1 PAX       0.1011
     71 H20       -36.6722  -34.6163   24.3089 H           1 PAX       0.2259
     72 H21       -36.3321  -29.5335   22.7073 H           1 PAX       0.0296
     73 H22       -36.0801  -29.9548   24.4029 H           1 PAX       0.0296
     74 H23       -37.6919  -30.1059   23.6746 H           1 PAX       0.0296
@<TRIPOS>BOND
     1     1     2  ar
     2     1     3  ar
     3     1     4   1
     4     8     1   1
     5     4    23   1
     6     5     6  ar
     7     5     7  ar
     8     5     8   1
     9    38     5   1
    10     9    10  ar
    11     9    11  ar
    12     9    12  ar
    13    30     9   1
    14    13    14   1
    15    13    22   1
    16    26    13   1
    17    14    15  ar
    18    14    20  ar
    19    15    16  ar
    20    16    17  ar
    21    18    17  ar
    22    18    19   1
    23    20    18  ar
    24    21    20   1
    25    22    21   2
    26    23    24   1
    27    24    25   1
    28    24    29   1
    29    25    26   1
    30    27    26   1
    31    27    28   1
    32    29    27   1
    33    29    30   1
    34    32    31   1
    35    31    39   1
    36    33    32   1
    37    33    34   1
    38    37    33   1
    39    35    34   1
    40    36    35   1
    41    35    43   1
    42    37    36   1
    43    37    38   1
    44    39    40  ar
    45    39    41  ar
    46    39    42  ar
    47    43    44   1
    48    43    45  am
    49    44    50   2
    50    45    46   2
    51    45    47  am
    52    47    48  am
    53    48    49   2
    54    48    50   1
    55    50    51   1
    56    16    52   1
    57    19    53   1
    58    19    54   1
    59    22    55   1
    60    23    56   1
    61    23    57   1
    62    24    58   1
    63    26    59   1
    64    27    60   1
    65    28    61   1
    66    29    62   1
    67    32    63   1
    68    32    64   1
    69    33    65   1
    70    35    66   1
    71    36    67   1
    72    36    68   1
    73    37    69   1
    74    44    70   1
    75    47    71   1
    76    51    72   1
    77    51    73   1
    78    51    74   1
@<TRIPOS>SUBSTRUCTURE
     1  PAX     14

