@<TRIPOS>MOLECULE
1u1b_ligand_013
    74    78
SMALL
GAST_HUCK
****
This file was generated by PARSER (from files_GN.cpp)

@<TRIPOS>ATOM
      1 PA        -32.7089  -34.0542   13.4584 P.3         1 PAX       0.2972
      2 O1A       -32.3893  -32.7231   13.0024 O.co2       1 PAX      -0.6127
      3 O2A       -33.0507  -34.8399   12.2954 O.co2       1 PAX      -0.6127
      4 O5        -31.4677  -34.5784   14.2422 O.3         1 PAX      -0.2476
      5 PB        -34.3323  -35.1485   15.2662 P.3         1 PAX       0.2974
      6 O1B       -35.7026  -35.4841   14.9597 O.co2       1 PAX      -0.6127
      7 O2B       -33.5627  -36.3497   15.0493 O.co2       1 PAX      -0.6127
      8 O3A       -33.8928  -33.8892   14.4562 O.3         1 PAX      -0.1319
      9 PG        -27.0916  -37.2752   14.4441 P.3         1 PAX       0.2013
     10 O1G       -26.2735  -38.1140   15.2864 O.co2       1 PAX      -0.5537
     11 O2G       -28.3520  -37.9591   14.2761 O.co2       1 PAX      -0.5537
     12 O3G       -26.4232  -37.1596   13.1695 O.co2       1 PAX      -0.5537
     13 N9A       -28.7581  -31.6654   16.0834 N.pl3       1 PAX      -0.1919
     14 C4A       -28.0647  -31.0447   17.0488 C.ar        1 PAX       0.1613
     15 N3A       -26.8432  -31.3140   17.5766 N.ar        1 PAX      -0.2714
     16 C2A       -26.3563  -30.5131   18.5633 C.ar        1 PAX       0.0533
     17 N1A       -27.0841  -29.4540   19.0195 N.ar        1 PAX      -0.2698
     18 C6A       -28.3200  -29.1636   18.5200 C.ar        1 PAX       0.1298
     19 N6A       -29.0298  -28.1267   18.9924 N.pl3       1 PAX      -0.3152
     20 C5A       -28.8291  -29.9738   17.4938 C.ar        1 PAX       0.1045
     21 N7A       -29.9733  -29.9519   16.8034 N.2         1 PAX      -0.2958
     22 C8A       -29.9191  -30.9847   15.9424 C.2         1 PAX       0.1123
     23 C5        -30.3726  -35.1168   13.4512 C.3         1 PAX       0.1131
     24 C4        -29.0258  -34.5743   14.0007 C.3         1 PAX       0.1235
     25 O4        -29.1984  -33.1811   14.2946 O.3         1 PAX      -0.3360
     26 C1        -28.3396  -32.8492   15.3907 C.3         1 PAX       0.2013
     27 C2        -28.3752  -34.0963   16.2961 C.3         1 PAX       0.1432
     28 O2        -27.2274  -34.1705   17.1477 O.3         1 PAX      -0.3832
     29 C3        -28.4998  -35.2663   15.2977 C.3         1 PAX       0.1487
     30 O3        -27.1981  -35.8927   15.1556 O.3         1 PAX      -0.2674
     31 O5        -34.8385  -32.0029   20.6800 O.3         1 PAX      -0.2734
     32 C5        -35.2926  -32.2898   19.3315 C.3         1 PAX       0.1074
     33 C4        -34.6496  -33.6068   18.7968 C.3         1 PAX       0.1209
     34 O4        -34.8489  -34.6668   19.7430 O.3         1 PAX      -0.3391
     35 C1        -35.6735  -35.7178   19.1938 C.3         1 PAX       0.1760
     36 C2        -36.3323  -35.0421   17.9639 C.3         1 PAX       0.0362
     37 C3        -35.2283  -34.1094   17.4580 C.3         1 PAX       0.1284
     38 O3        -34.1899  -34.8455   16.7802 O.3         1 PAX      -0.2441
     39 PD        -35.7985  -32.3147   21.8717 P.3         1 PAX       0.2008
     40 O1D       -36.4516  -31.1023   22.3086 O.co2       1 PAX      -0.5537
     41 O2D       -34.9845  -32.7897   22.9665 O.co2       1 PAX      -0.5537
     42 O3D       -36.8051  -33.3165   21.5991 O.co2       1 PAX      -0.5537
     43 N1T       -36.5593  -36.3608   20.1613 N.am        1 PAX      -0.1736
     44 C6T       -37.9166  -36.3095   19.9895 C.2         1 PAX       0.0524
     45 C2T       -36.0906  -37.0896   21.1967 C.2         1 PAX       0.3265
     46 O2T       -34.9082  -37.3291   21.3895 O.2         1 PAX      -0.3843
     47 N3T       -36.9269  -37.6248   22.0785 N.am        1 PAX      -0.1859
     48 C4T       -38.2399  -37.4882   21.9692 C.2         1 PAX       0.1930
     49 O4T       -38.9311  -37.9891   22.8462 O.2         1 PAX      -0.4079
     50 C5T       -38.7868  -36.8467   20.8818 C.2         1 PAX       0.0225
     51 CM5       -40.2351  -36.7687   20.6987 C.3         1 PAX      -0.0437
     52 H1        -25.4332  -30.7127   18.9638 H           1 PAX       0.0996
     53 H2        -29.9106  -27.9364   18.6247 H           1 PAX       0.1820
     54 H3        -28.6693  -27.5665   19.7026 H           1 PAX       0.1820
     55 H4        -30.6698  -31.2187   15.2923 H           1 PAX       0.1349
     56 H5        -30.4135  -34.8358   12.3838 H           1 PAX       0.0648
     57 H6        -30.3716  -36.2174   13.5230 H           1 PAX       0.0648
     58 H7        -28.2622  -34.6512   13.2187 H           1 PAX       0.0654
     59 H8        -27.3279  -32.6987   14.9890 H           1 PAX       0.0996
     60 H9        -29.2694  -34.0657   16.9278 H           1 PAX       0.0680
     61 H10       -27.3586  -34.9818   17.6871 H           1 PAX       0.2101
     62 H11       -29.2285  -35.9822   15.7062 H           1 PAX       0.0704
     63 H12       -34.9317  -31.4698   18.7042 H           1 PAX       0.0639
     64 H13       -36.3878  -32.3150   19.2157 H           1 PAX       0.0639
     65 H14       -33.5713  -33.4387   18.7246 H           1 PAX       0.0653
     66 H15       -34.9943  -36.4986   18.8249 H           1 PAX       0.0959
     67 H16       -37.2068  -34.4596   18.2652 H           1 PAX       0.0348
     68 H17       -36.6288  -35.7592   17.1974 H           1 PAX       0.0348
     69 H18       -35.6063  -33.2726   16.8668 H           1 PAX       0.0686
     70 H19       -38.2944  -35.8788   19.1742 H           1 PAX       0.1011
     71 H20       -36.5665  -38.1161   22.8333 H           1 PAX       0.2259
     72 H21       -40.5204  -36.2424   19.7799 H           1 PAX       0.0296
     73 H22       -40.6825  -36.2350   21.5441 H           1 PAX       0.0296
     74 H23       -40.6585  -37.7779   20.6523 H           1 PAX       0.0296
@<TRIPOS>BOND
     1     1     2  ar
     2     1     3  ar
     3     1     4   1
     4     8     1   1
     5     4    23   1
     6     5     6  ar
     7     5     7  ar
     8     5     8   1
     9    38     5   1
    10     9    10  ar
    11     9    11  ar
    12     9    12  ar
    13    30     9   1
    14    13    14   1
    15    13    22   1
    16    26    13   1
    17    14    15  ar
    18    14    20  ar
    19    15    16  ar
    20    16    17  ar
    21    18    17  ar
    22    18    19   1
    23    20    18  ar
    24    21    20   1
    25    22    21   2
    26    23    24   1
    27    24    25   1
    28    24    29   1
    29    25    26   1
    30    27    26   1
    31    27    28   1
    32    29    27   1
    33    29    30   1
    34    32    31   1
    35    31    39   1
    36    33    32   1
    37    33    34   1
    38    37    33   1
    39    35    34   1
    40    36    35   1
    41    35    43   1
    42    37    36   1
    43    37    38   1
    44    39    40  ar
    45    39    41  ar
    46    39    42  ar
    47    43    44   1
    48    43    45  am
    49    44    50   2
    50    45    46   2
    51    45    47  am
    52    47    48  am
    53    48    49   2
    54    48    50   1
    55    50    51   1
    56    16    52   1
    57    19    53   1
    58    19    54   1
    59    22    55   1
    60    23    56   1
    61    23    57   1
    62    24    58   1
    63    26    59   1
    64    27    60   1
    65    28    61   1
    66    29    62   1
    67    32    63   1
    68    32    64   1
    69    33    65   1
    70    35    66   1
    71    36    67   1
    72    36    68   1
    73    37    69   1
    74    44    70   1
    75    47    71   1
    76    51    72   1
    77    51    73   1
    78    51    74   1
@<TRIPOS>SUBSTRUCTURE
     1  PAX     14

