@<TRIPOS>MOLECULE
1u1b_ligand_078
    74    78
SMALL
GAST_HUCK
****
This file was generated by PARSER (from files_GN.cpp)

@<TRIPOS>ATOM
      1 PA        -29.6816  -31.5015   18.3149 P.3         1 PAX       0.2972
      2 O1A       -30.0132  -30.8927   19.5879 O.co2       1 PAX      -0.6127
      3 O2A       -29.8547  -32.9316   18.4366 O.co2       1 PAX      -0.6127
      4 O5        -30.7076  -31.0558   17.2304 O.3         1 PAX      -0.2476
      5 PB        -27.0058  -31.4923   18.6423 P.3         1 PAX       0.2974
      6 O1B       -26.5401  -30.2517   19.2084 O.co2       1 PAX      -0.6127
      7 O2B       -27.1304  -32.4702   19.7061 O.co2       1 PAX      -0.6127
      8 O3A       -28.2569  -31.1790   17.7847 O.3         1 PAX      -0.1319
      9 PG        -31.1581  -33.0391   13.7377 P.3         1 PAX       0.2013
     10 O1G       -32.3327  -32.5948   14.4469 O.co2       1 PAX      -0.5537
     11 O2G       -31.6029  -33.6534   12.5156 O.co2       1 PAX      -0.5537
     12 O3G       -30.4769  -34.0547   14.5036 O.co2       1 PAX      -0.5537
     13 N9A       -28.1612  -27.9245   13.2288 N.pl3       1 PAX      -0.1919
     14 C4A       -28.0465  -26.7929   13.9548 C.ar        1 PAX       0.1613
     15 N3A       -28.7258  -26.3370   15.0378 N.ar        1 PAX      -0.2714
     16 C2A       -28.4085  -25.1293   15.5826 C.ar        1 PAX       0.0533
     17 N1A       -27.4107  -24.3770   15.0458 N.ar        1 PAX      -0.2698
     18 C6A       -26.6983  -24.7913   13.9576 C.ar        1 PAX       0.1298
     19 N6A       -25.7286  -24.0179   13.4520 N.pl3       1 PAX      -0.3152
     20 C5A       -27.0233  -26.0356   13.3937 C.ar        1 PAX       0.1045
     21 N7A       -26.5271  -26.6975   12.3378 N.2         1 PAX      -0.2958
     22 C8A       -27.2285  -27.8400   12.2522 C.2         1 PAX       0.1123
     23 C5        -30.4689  -29.8042   16.5380 C.3         1 PAX       0.1131
     24 C4        -30.5092  -29.9908   14.9915 C.3         1 PAX       0.1235
     25 O4        -30.1056  -28.7527   14.3781 O.3         1 PAX      -0.3360
     26 C1        -29.0905  -29.0097   13.3967 C.3         1 PAX       0.2013
     27 C2        -28.4132  -30.3129   13.8658 C.3         1 PAX       0.1432
     28 O2        -27.7248  -31.0125   12.8269 O.3         1 PAX      -0.3832
     29 C3        -29.5919  -31.1172   14.4294 C.3         1 PAX       0.1487
     30 O3        -30.2172  -31.8593   13.3521 O.3         1 PAX      -0.2674
     31 O5        -26.9389  -35.5761   15.2380 O.3         1 PAX      -0.2734
     32 C5        -26.8309  -35.3975   16.6666 C.3         1 PAX       0.1074
     33 C4        -25.7635  -34.3025   16.9534 C.3         1 PAX       0.1209
     34 O4        -24.5641  -34.5872   16.1914 O.3         1 PAX      -0.3391
     35 C1        -24.1063  -33.3638   15.5860 C.3         1 PAX       0.1760
     36 C2        -25.3783  -32.5268   15.3673 C.3         1 PAX       0.0362
     37 C3        -26.2271  -32.8584   16.6017 C.3         1 PAX       0.1284
     38 O3        -25.8871  -31.9025   17.6419 O.3         1 PAX      -0.2441
     39 PD        -27.0698  -37.0276   14.6929 P.3         1 PAX       0.2008
     40 O1D       -26.5972  -37.0090   13.3277 O.co2       1 PAX      -0.5537
     41 O2D       -28.4165  -37.5610   14.6513 O.co2       1 PAX      -0.5537
     42 O3D       -26.2071  -37.9561   15.3823 O.co2       1 PAX      -0.5537
     43 N1T       -23.3589  -33.5401   14.3480 N.am        1 PAX      -0.1736
     44 C6T       -22.5249  -32.5450   13.9166 C.2         1 PAX       0.0524
     45 C2T       -23.5305  -34.6167   13.5528 C.2         1 PAX       0.3265
     46 O2T       -24.2619  -35.5620   13.8306 O.2         1 PAX      -0.3843
     47 N3T       -22.8978  -34.6923   12.3892 N.am        1 PAX      -0.1859
     48 C4T       -22.0898  -33.7232   11.9588 C.2         1 PAX       0.1930
     49 O4T       -21.5584  -33.8955   10.8762 O.2         1 PAX      -0.4079
     50 C5T       -21.8905  -32.5973   12.7215 C.2         1 PAX       0.0225
     51 CM5       -21.0706  -31.4735   12.2907 C.3         1 PAX      -0.0437
     52 H1        -28.9229  -24.7875   16.3954 H           1 PAX       0.0996
     53 H2        -25.2255  -24.3149   12.6756 H           1 PAX       0.1820
     54 H3        -25.5298  -23.1563   13.8518 H           1 PAX       0.1820
     55 H4        -27.0734  -28.5386   11.5222 H           1 PAX       0.1349
     56 H5        -29.5317  -29.3042   16.8099 H           1 PAX       0.0648
     57 H6        -31.2776  -29.1248   16.8228 H           1 PAX       0.0648
     58 H7        -31.5485  -30.1801   14.7021 H           1 PAX       0.0654
     59 H8        -29.5993  -29.1838   12.4416 H           1 PAX       0.0996
     60 H9        -27.7048  -30.0946   14.6717 H           1 PAX       0.0680
     61 H10       -26.8917  -30.5174   12.6842 H           1 PAX       0.2101
     62 H11       -29.2087  -31.7864   15.2012 H           1 PAX       0.0704
     63 H12       -26.5048  -36.3057   17.1859 H           1 PAX       0.0639
     64 H13       -27.8007  -35.1023   17.0776 H           1 PAX       0.0639
     65 H14       -25.5014  -34.3511   18.0191 H           1 PAX       0.0653
     66 H15       -23.4951  -32.8603   16.3468 H           1 PAX       0.0959
     67 H16       -25.9008  -32.8432   14.4596 H           1 PAX       0.0348
     68 H17       -25.1582  -31.4599   15.2914 H           1 PAX       0.0348
     69 H18       -27.2864  -32.8183   16.3134 H           1 PAX       0.0686
     70 H19       -22.3998  -31.7385   14.4858 H           1 PAX       0.1011
     71 H20       -23.0328  -35.4764   11.8276 H           1 PAX       0.2259
     72 H21       -21.6812  -30.5681   12.2370 H           1 PAX       0.0296
     73 H22       -20.6176  -31.6219   11.3075 H           1 PAX       0.0296
     74 H23       -20.2611  -31.3078   13.0068 H           1 PAX       0.0296
@<TRIPOS>BOND
     1     1     2  ar
     2     1     3  ar
     3     1     4   1
     4     8     1   1
     5     4    23   1
     6     5     6  ar
     7     5     7  ar
     8     5     8   1
     9    38     5   1
    10     9    10  ar
    11     9    11  ar
    12     9    12  ar
    13    30     9   1
    14    13    14   1
    15    13    22   1
    16    26    13   1
    17    14    15  ar
    18    14    20  ar
    19    15    16  ar
    20    16    17  ar
    21    18    17  ar
    22    18    19   1
    23    20    18  ar
    24    21    20   1
    25    22    21   2
    26    23    24   1
    27    24    25   1
    28    24    29   1
    29    25    26   1
    30    27    26   1
    31    27    28   1
    32    29    27   1
    33    29    30   1
    34    32    31   1
    35    31    39   1
    36    33    32   1
    37    33    34   1
    38    37    33   1
    39    35    34   1
    40    36    35   1
    41    35    43   1
    42    37    36   1
    43    37    38   1
    44    39    40  ar
    45    39    41  ar
    46    39    42  ar
    47    43    44   1
    48    43    45  am
    49    44    50   2
    50    45    46   2
    51    45    47  am
    52    47    48  am
    53    48    49   2
    54    48    50   1
    55    50    51   1
    56    16    52   1
    57    19    53   1
    58    19    54   1
    59    22    55   1
    60    23    56   1
    61    23    57   1
    62    24    58   1
    63    26    59   1
    64    27    60   1
    65    28    61   1
    66    29    62   1
    67    32    63   1
    68    32    64   1
    69    33    65   1
    70    35    66   1
    71    36    67   1
    72    36    68   1
    73    37    69   1
    74    44    70   1
    75    47    71   1
    76    51    72   1
    77    51    73   1
    78    51    74   1
@<TRIPOS>SUBSTRUCTURE
     1  PAX     14

