@<TRIPOS>MOLECULE
1u1b_ligand_035
    74    78
SMALL
GAST_HUCK
****
This file was generated by PARSER (from files_GN.cpp)

@<TRIPOS>ATOM
      1 PA        -23.9664  -33.6808   18.3467 P.3         1 PAX       0.2972
      2 O1A       -23.7197  -34.1621   19.6953 O.co2       1 PAX      -0.6127
      3 O2A       -24.7569  -34.6749   17.6694 O.co2       1 PAX      -0.6127
      4 O5        -24.8079  -32.3734   18.5486 O.3         1 PAX      -0.2476
      5 PB        -21.9763  -34.1017   16.5736 P.3         1 PAX       0.2974
      6 O1B       -22.9604  -34.5946   15.6487 O.co2       1 PAX      -0.6127
      7 O2B       -21.2733  -33.1217   15.7710 O.co2       1 PAX      -0.6127
      8 O3A       -22.6322  -33.2223   17.6805 O.3         1 PAX      -0.1319
      9 PG        -29.0534  -35.1553   16.5444 P.3         1 PAX       0.2013
     10 O1G       -27.9193  -36.0527   16.5136 O.co2       1 PAX      -0.5537
     11 O2G       -30.2139  -35.9407   16.8959 O.co2       1 PAX      -0.5537
     12 O3G       -29.3079  -34.6225   15.2276 O.co2       1 PAX      -0.5537
     13 N9A       -29.6610  -29.8782   19.2141 N.pl3       1 PAX      -0.1919
     14 C4A       -29.5154  -29.2911   20.4174 C.ar        1 PAX       0.1613
     15 N3A       -28.8280  -29.6842   21.5197 N.ar        1 PAX      -0.2714
     16 C2A       -28.8641  -28.9231   22.6462 C.ar        1 PAX       0.0533
     17 N1A       -29.6390  -27.8025   22.6868 N.ar        1 PAX      -0.2698
     18 C6A       -30.3676  -27.3845   21.6170 C.ar        1 PAX       0.1298
     19 N6A       -31.1190  -26.2760   21.7082 N.pl3       1 PAX      -0.3152
     20 C5A       -30.2998  -28.1411   20.4366 C.ar        1 PAX       0.1045
     21 N7A       -30.8840  -28.0084   19.2370 N.2         1 PAX      -0.2958
     22 C8A       -30.4823  -29.0611   18.5033 C.2         1 PAX       0.1123
     23 C5        -25.8290  -32.0334   17.5758 C.3         1 PAX       0.1131
     24 C4        -27.2227  -32.3163   18.2083 C.3         1 PAX       0.1235
     25 O4        -27.6758  -31.1171   18.8629 O.3         1 PAX      -0.3360
     26 C1        -29.1050  -31.1575   18.8601 C.3         1 PAX       0.2013
     27 C2        -29.4418  -31.7111   17.4608 C.3         1 PAX       0.1432
     28 O2        -30.7738  -32.2297   17.4067 O.3         1 PAX      -0.3832
     29 C3        -28.3456  -32.7679   17.2320 C.3         1 PAX       0.1487
     30 O3        -28.8682  -34.0613   17.6259 O.3         1 PAX      -0.2674
     31 O5        -17.1292  -34.4264   14.1530 O.3         1 PAX      -0.2734
     32 C5        -17.9476  -34.0744   15.2881 C.3         1 PAX       0.1074
     33 C4        -18.9405  -35.2280   15.5823 C.3         1 PAX       0.1209
     34 O4        -18.2091  -36.4602   15.4903 O.3         1 PAX      -0.3391
     35 C1        -18.5121  -37.2855   16.6243 C.3         1 PAX       0.1760
     36 C2        -18.9122  -36.2812   17.7284 C.3         1 PAX       0.0362
     37 C3        -19.6087  -35.1266   16.9871 C.3         1 PAX       0.1284
     38 O3        -21.0503  -35.2983   16.9971 O.3         1 PAX      -0.2441
     39 PD        -16.1452  -33.3425   13.6403 P.3         1 PAX       0.2008
     40 O1D       -16.2528  -32.0832   14.3422 O.co2       1 PAX      -0.5537
     41 O2D       -16.4738  -33.0848   12.2533 O.co2       1 PAX      -0.5537
     42 O3D       -14.7702  -33.8003   13.6716 O.co2       1 PAX      -0.5537
     43 N1T       -17.4542  -38.2104   17.0403 N.am        1 PAX      -0.1736
     44 C6T       -17.7818  -39.2574   17.8643 C.2         1 PAX       0.0524
     45 C2T       -16.1669  -38.0995   16.6454 C.2         1 PAX       0.3265
     46 O2T       -15.7348  -37.1971   15.9483 O.2         1 PAX      -0.3843
     47 N3T       -15.2681  -39.0029   17.0296 N.am        1 PAX      -0.1859
     48 C4T       -15.5898  -40.0269   17.8102 C.2         1 PAX       0.1930
     49 O4T       -14.6967  -40.8082   18.0981 O.2         1 PAX      -0.4079
     50 C5T       -16.8764  -40.1789   18.2699 C.2         1 PAX       0.0225
     51 CM5       -17.2282  -41.2744   19.1719 C.3         1 PAX      -0.0437
     52 H1        -28.3414  -29.2169   23.4706 H           1 PAX       0.0996
     53 H2        -31.6257  -25.9702   20.9422 H           1 PAX       0.1820
     54 H3        -31.1440  -25.7744   22.5355 H           1 PAX       0.1820
     55 H4        -30.8032  -29.2261   17.5461 H           1 PAX       0.1349
     56 H5        -25.7165  -32.5532   16.6174 H           1 PAX       0.0648
     57 H6        -25.7295  -30.9656   17.3574 H           1 PAX       0.0648
     58 H7        -27.0915  -33.0950   18.9678 H           1 PAX       0.0654
     59 H8        -29.4388  -31.8815   19.6155 H           1 PAX       0.0996
     60 H9        -29.3424  -30.9220   16.7103 H           1 PAX       0.0680
     61 H10       -31.3636  -31.4477   17.3614 H           1 PAX       0.2101
     62 H11       -28.0153  -32.7131   16.1906 H           1 PAX       0.0704
     63 H12       -18.5170  -33.1711   15.0498 H           1 PAX       0.0639
     64 H13       -17.3365  -33.8854   16.1803 H           1 PAX       0.0639
     65 H14       -19.7050  -35.2367   14.8008 H           1 PAX       0.0653
     66 H15       -19.3912  -37.8717   16.3284 H           1 PAX       0.0959
     67 H16       -18.0054  -35.9066   18.2116 H           1 PAX       0.0348
     68 H17       -19.5527  -36.7360   18.4879 H           1 PAX       0.0348
     69 H18       -19.3639  -34.1949   17.5070 H           1 PAX       0.0686
     70 H19       -18.7220  -39.3442   18.1824 H           1 PAX       0.1011
     71 H20       -14.3517  -38.9122   16.7298 H           1 PAX       0.2259
     72 H21       -18.2749  -41.2498   19.4845 H           1 PAX       0.0296
     73 H22       -16.6126  -41.2277   20.0731 H           1 PAX       0.0296
     74 H23       -17.0475  -42.2313   18.6783 H           1 PAX       0.0296
@<TRIPOS>BOND
     1     1     2  ar
     2     1     3  ar
     3     1     4   1
     4     8     1   1
     5     4    23   1
     6     5     6  ar
     7     5     7  ar
     8     5     8   1
     9    38     5   1
    10     9    10  ar
    11     9    11  ar
    12     9    12  ar
    13    30     9   1
    14    13    14   1
    15    13    22   1
    16    26    13   1
    17    14    15  ar
    18    14    20  ar
    19    15    16  ar
    20    16    17  ar
    21    18    17  ar
    22    18    19   1
    23    20    18  ar
    24    21    20   1
    25    22    21   2
    26    23    24   1
    27    24    25   1
    28    24    29   1
    29    25    26   1
    30    27    26   1
    31    27    28   1
    32    29    27   1
    33    29    30   1
    34    32    31   1
    35    31    39   1
    36    33    32   1
    37    33    34   1
    38    37    33   1
    39    35    34   1
    40    36    35   1
    41    35    43   1
    42    37    36   1
    43    37    38   1
    44    39    40  ar
    45    39    41  ar
    46    39    42  ar
    47    43    44   1
    48    43    45  am
    49    44    50   2
    50    45    46   2
    51    45    47  am
    52    47    48  am
    53    48    49   2
    54    48    50   1
    55    50    51   1
    56    16    52   1
    57    19    53   1
    58    19    54   1
    59    22    55   1
    60    23    56   1
    61    23    57   1
    62    24    58   1
    63    26    59   1
    64    27    60   1
    65    28    61   1
    66    29    62   1
    67    32    63   1
    68    32    64   1
    69    33    65   1
    70    35    66   1
    71    36    67   1
    72    36    68   1
    73    37    69   1
    74    44    70   1
    75    47    71   1
    76    51    72   1
    77    51    73   1
    78    51    74   1
@<TRIPOS>SUBSTRUCTURE
     1  PAX     14

