@<TRIPOS>MOLECULE
1u1b_ligand_056
    74    78
SMALL
GAST_HUCK
****
This file was generated by PARSER (from files_GN.cpp)

@<TRIPOS>ATOM
      1 PA        -32.1563  -33.2506   18.0375 P.3         1 PAX       0.2972
      2 O1A       -32.3255  -31.8225   18.1608 O.co2       1 PAX      -0.6127
      3 O2A       -32.8296  -33.7311   16.8530 O.co2       1 PAX      -0.6127
      4 O5        -30.6299  -33.5747   17.9596 O.3         1 PAX      -0.2476
      5 PB        -34.1375  -33.7768   19.7401 P.3         1 PAX       0.2974
      6 O1B       -35.0780  -34.6056   19.0136 O.co2       1 PAX      -0.6127
      7 O2B       -34.1615  -34.2931   21.0905 O.co2       1 PAX      -0.6127
      8 O3A       -32.6673  -34.0146   19.2949 O.3         1 PAX      -0.1319
      9 PG        -25.1742  -32.2681   17.7187 P.3         1 PAX       0.2013
     10 O1G       -25.1123  -33.6453   18.1348 O.co2       1 PAX      -0.5537
     11 O2G       -24.1948  -32.1286   16.6742 O.co2       1 PAX      -0.5537
     12 O3G       -24.7318  -31.4230   18.7977 O.co2       1 PAX      -0.5537
     13 N9A       -29.7957  -29.0180   18.9184 N.pl3       1 PAX      -0.1919
     14 C4A       -29.7089  -28.7233   20.2293 C.ar        1 PAX       0.1613
     15 N3A       -28.8839  -29.1681   21.2131 N.ar        1 PAX      -0.2714
     16 C2A       -29.0023  -28.7064   22.4848 C.ar        1 PAX       0.0533
     17 N1A       -29.9626  -27.7930   22.7834 N.ar        1 PAX      -0.2698
     18 C6A       -30.8128  -27.3059   21.8343 C.ar        1 PAX       0.1298
     19 N6A       -31.7412  -26.3998   22.1659 N.pl3       1 PAX      -0.3152
     20 C5A       -30.6854  -27.7726   20.5181 C.ar        1 PAX       0.1045
     21 N7A       -31.3394  -27.4813   19.3861 N.2         1 PAX      -0.2958
     22 C8A       -30.7847  -28.2386   18.4213 C.2         1 PAX       0.1123
     23 C5        -29.8593  -33.2124   16.7908 C.3         1 PAX       0.1131
     24 C4        -29.0135  -31.9145   16.9546 C.3         1 PAX       0.1235
     25 O4        -29.8572  -30.8628   17.4435 O.3         1 PAX      -0.3360
     26 C1        -29.0170  -29.9266   18.1191 C.3         1 PAX       0.2013
     27 C2        -28.0290  -30.8309   18.8742 C.3         1 PAX       0.1432
     28 O2        -26.8939  -30.0659   19.2854 O.3         1 PAX      -0.3832
     29 C3        -27.7654  -31.9954   17.8953 C.3         1 PAX       0.1487
     30 O3        -26.5502  -31.8581   17.1126 O.3         1 PAX      -0.2674
     31 O5        -38.3036  -31.5879   17.5737 O.3         1 PAX      -0.2734
     32 C5        -37.0241  -32.1476   17.2006 C.3         1 PAX       0.1074
     33 C4        -35.8626  -31.4590   17.9679 C.3         1 PAX       0.1209
     34 O4        -35.9678  -30.0297   17.8486 O.3         1 PAX      -0.3391
     35 C1        -35.5664  -29.4389   19.0921 C.3         1 PAX       0.1760
     36 C2        -36.0472  -30.4465   20.1517 C.3         1 PAX       0.0362
     37 C3        -35.7928  -31.8075   19.4868 C.3         1 PAX       0.1284
     38 O3        -34.4798  -32.2638   19.8849 O.3         1 PAX      -0.2441
     39 PD        -38.9255  -30.4969   16.6510 P.3         1 PAX       0.2008
     40 O1D       -38.0006  -29.5129   16.1501 O.co2       1 PAX      -0.5537
     41 O2D       -39.9416  -29.8082   17.4100 O.co2       1 PAX      -0.5537
     42 O3D       -39.5943  -31.1146   15.5347 O.co2       1 PAX      -0.5537
     43 N1T       -36.1029  -28.0954   19.2925 N.am        1 PAX      -0.1736
     44 C6T       -37.4568  -27.8944   19.3187 C.2         1 PAX       0.0524
     45 C2T       -35.3049  -27.0323   19.5252 C.2         1 PAX       0.3265
     46 O2T       -34.0843  -27.0955   19.5481 O.2         1 PAX      -0.3843
     47 N3T       -35.8372  -25.8397   19.7919 N.am        1 PAX      -0.1859
     48 C4T       -37.1513  -25.6505   19.8281 C.2         1 PAX       0.1930
     49 O4T       -37.5370  -24.5258   20.1149 O.2         1 PAX      -0.4079
     50 C5T       -38.0184  -26.6891   19.5797 C.2         1 PAX       0.0225
     51 CM5       -39.4714  -26.5329   19.5880 C.3         1 PAX      -0.0437
     52 H1        -28.3784  -29.0608   23.2103 H           1 PAX       0.0996
     53 H2        -32.3382  -26.0461   21.4898 H           1 PAX       0.1820
     54 H3        -31.7932  -26.0780   23.0756 H           1 PAX       0.1820
     55 H4        -31.0878  -28.2232   17.4434 H           1 PAX       0.1349
     56 H5        -30.4785  -33.1232   15.8916 H           1 PAX       0.0648
     57 H6        -29.1659  -34.0372   16.6149 H           1 PAX       0.0648
     58 H7        -28.6835  -31.6145   15.9524 H           1 PAX       0.0654
     59 H8        -28.4832  -29.3370   17.3691 H           1 PAX       0.0996
     60 H9        -28.5306  -31.2465   19.7570 H           1 PAX       0.0680
     61 H10       -26.5230  -30.5287   20.0606 H           1 PAX       0.2101
     62 H11       -27.7852  -32.9463   18.4400 H           1 PAX       0.0704
     63 H12       -36.8276  -32.1169   16.1223 H           1 PAX       0.0639
     64 H13       -37.0339  -33.2060   17.4776 H           1 PAX       0.0639
     65 H14       -34.9333  -31.7542   17.4815 H           1 PAX       0.0653
     66 H15       -34.4684  -29.4330   19.1017 H           1 PAX       0.0959
     67 H16       -37.1173  -30.3326   20.3499 H           1 PAX       0.0348
     68 H17       -35.5012  -30.3276   21.0914 H           1 PAX       0.0348
     69 H18       -36.5760  -32.5047   19.8096 H           1 PAX       0.0686
     70 H19       -38.0610  -28.6655   19.1580 H           1 PAX       0.1011
     71 H20       -35.2554  -25.0898   19.9887 H           1 PAX       0.2259
     72 H21       -39.8743  -26.7700   18.6031 H           1 PAX       0.0296
     73 H22       -39.7901  -25.5182   19.8372 H           1 PAX       0.0296
     74 H23       -39.9176  -27.2047   20.3215 H           1 PAX       0.0296
@<TRIPOS>BOND
     1     1     2  ar
     2     1     3  ar
     3     1     4   1
     4     8     1   1
     5     4    23   1
     6     5     6  ar
     7     5     7  ar
     8     5     8   1
     9    38     5   1
    10     9    10  ar
    11     9    11  ar
    12     9    12  ar
    13    30     9   1
    14    13    14   1
    15    13    22   1
    16    26    13   1
    17    14    15  ar
    18    14    20  ar
    19    15    16  ar
    20    16    17  ar
    21    18    17  ar
    22    18    19   1
    23    20    18  ar
    24    21    20   1
    25    22    21   2
    26    23    24   1
    27    24    25   1
    28    24    29   1
    29    25    26   1
    30    27    26   1
    31    27    28   1
    32    29    27   1
    33    29    30   1
    34    32    31   1
    35    31    39   1
    36    33    32   1
    37    33    34   1
    38    37    33   1
    39    35    34   1
    40    36    35   1
    41    35    43   1
    42    37    36   1
    43    37    38   1
    44    39    40  ar
    45    39    41  ar
    46    39    42  ar
    47    43    44   1
    48    43    45  am
    49    44    50   2
    50    45    46   2
    51    45    47  am
    52    47    48  am
    53    48    49   2
    54    48    50   1
    55    50    51   1
    56    16    52   1
    57    19    53   1
    58    19    54   1
    59    22    55   1
    60    23    56   1
    61    23    57   1
    62    24    58   1
    63    26    59   1
    64    27    60   1
    65    28    61   1
    66    29    62   1
    67    32    63   1
    68    32    64   1
    69    33    65   1
    70    35    66   1
    71    36    67   1
    72    36    68   1
    73    37    69   1
    74    44    70   1
    75    47    71   1
    76    51    72   1
    77    51    73   1
    78    51    74   1
@<TRIPOS>SUBSTRUCTURE
     1  PAX     14

