@<TRIPOS>MOLECULE
1u1b_ligand_095
    74    78
SMALL
GAST_HUCK
****
This file was generated by PARSER (from files_GN.cpp)

@<TRIPOS>ATOM
      1 PA        -31.2391  -29.7916   15.3255 P.3         1 PAX       0.2972
      2 O1A       -30.8647  -28.4530   15.7099 O.co2       1 PAX      -0.6127
      3 O2A       -30.9541  -29.8945   13.9177 O.co2       1 PAX      -0.6127
      4 O5        -30.4069  -30.8707   16.0974 O.3         1 PAX      -0.2476
      5 PB        -33.4398  -30.2240   16.7935 P.3         1 PAX       0.2974
      6 O1B       -32.6473  -30.2549   17.9955 O.co2       1 PAX      -0.6127
      7 O2B       -34.3872  -29.1690   16.9541 O.co2       1 PAX      -0.6127
      8 O3A       -32.7837  -29.9481   15.4020 O.3         1 PAX      -0.1319
      9 PG        -26.4879  -33.5805   17.5239 P.3         1 PAX       0.2013
     10 O1G       -26.5158  -33.1870   16.1458 O.co2       1 PAX      -0.5537
     11 O2G       -25.1167  -33.8176   17.8777 O.co2       1 PAX      -0.5537
     12 O3G       -27.2040  -34.8147   17.7023 O.co2       1 PAX      -0.5537
     13 N9A       -29.2312  -28.9312   20.2622 N.pl3       1 PAX      -0.1919
     14 C4A       -30.2808  -28.1441   19.9621 C.ar        1 PAX       0.1613
     15 N3A       -30.9249  -27.9068   18.7906 N.ar        1 PAX      -0.2714
     16 C2A       -31.9971  -27.0703   18.7607 C.ar        1 PAX       0.0533
     17 N1A       -32.4334  -26.4754   19.9047 N.ar        1 PAX      -0.2698
     18 C6A       -31.8168  -26.6780   21.1005 C.ar        1 PAX       0.1298
     19 N6A       -32.2900  -26.0571   22.1919 N.pl3       1 PAX      -0.3152
     20 C5A       -30.7029  -27.5365   21.1437 C.ar        1 PAX       0.1045
     21 N7A       -29.9045  -27.9428   22.1416 N.2         1 PAX      -0.2958
     22 C8A       -29.0155  -28.7903   21.5902 C.2         1 PAX       0.1123
     23 C5        -28.9687  -30.8566   15.9271 C.3         1 PAX       0.1131
     24 C4        -28.2360  -30.6970   17.2819 C.3         1 PAX       0.1235
     25 O4        -28.7435  -29.5571   17.9924 O.3         1 PAX      -0.3360
     26 C1        -28.4844  -29.7905   19.3841 C.3         1 PAX       0.2013
     27 C2        -28.8544  -31.2769   19.5479 C.3         1 PAX       0.1432
     28 O2        -28.3344  -31.8600   20.7449 O.3         1 PAX      -0.3832
     29 C3        -28.3314  -31.9170   18.2451 C.3         1 PAX       0.1487
     30 O3        -27.0281  -32.4909   18.5015 O.3         1 PAX      -0.2674
     31 O5        -33.5894  -33.7973   13.4284 O.3         1 PAX      -0.2734
     32 C5        -34.7814  -34.2055   14.1362 C.3         1 PAX       0.1074
     33 C4        -34.9547  -33.5530   15.5533 C.3         1 PAX       0.1209
     34 O4        -35.2439  -34.5808   16.5186 O.3         1 PAX      -0.3391
     35 C1        -34.3890  -34.4531   17.6653 C.3         1 PAX       0.1760
     36 C2        -33.1831  -33.6214   17.2034 C.3         1 PAX       0.0362
     37 C3        -33.7835  -32.7010   16.1294 C.3         1 PAX       0.1284
     38 O3        -34.3543  -31.4841   16.6797 O.3         1 PAX      -0.2441
     39 PD        -32.5543  -34.8880   13.0149 P.3         1 PAX       0.2008
     40 O1D       -33.0663  -35.6430   11.9059 O.co2       1 PAX      -0.5537
     41 O2D       -32.2120  -35.7621   14.1019 O.co2       1 PAX      -0.5537
     42 O3D       -31.3618  -34.1987   12.5870 O.co2       1 PAX      -0.5537
     43 N1T       -33.9891  -35.7234   18.2606 N.am        1 PAX      -0.1736
     44 C6T       -33.7241  -35.7779   19.6010 C.2         1 PAX       0.0524
     45 C2T       -33.8104  -36.8484   17.5335 C.2         1 PAX       0.3265
     46 O2T       -33.9504  -36.9069   16.3214 O.2         1 PAX      -0.3843
     47 N3T       -33.4524  -37.9825   18.1305 N.am        1 PAX      -0.1859
     48 C4T       -33.2244  -38.0440   19.4369 C.2         1 PAX       0.1930
     49 O4T       -32.9191  -39.1365   19.8983 O.2         1 PAX      -0.4079
     50 C5T       -33.3239  -36.9169   20.2178 C.2         1 PAX       0.0225
     51 CM5       -32.9773  -36.9489   21.6353 C.3         1 PAX      -0.0437
     52 H1        -32.4776  -26.8916   17.8792 H           1 PAX       0.0996
     53 H2        -31.8288  -26.1283   23.0408 H           1 PAX       0.1820
     54 H3        -33.0701  -25.4860   22.1161 H           1 PAX       0.1820
     55 H4        -28.2827  -29.2650   22.1222 H           1 PAX       0.1349
     56 H5        -28.5923  -30.0794   15.2539 H           1 PAX       0.0648
     57 H6        -28.6894  -31.8105   15.4799 H           1 PAX       0.0648
     58 H7        -27.1813  -30.4954   17.0638 H           1 PAX       0.0654
     59 H8        -27.4128  -29.6402   19.5712 H           1 PAX       0.0996
     60 H9        -29.9448  -31.3728   19.5817 H           1 PAX       0.0680
     61 H10       -27.3718  -31.6773   20.7452 H           1 PAX       0.2101
     62 H11       -29.0639  -32.6633   17.9127 H           1 PAX       0.0704
     63 H12       -34.8949  -35.2932   14.2172 H           1 PAX       0.0639
     64 H13       -35.6059  -33.8731   13.5008 H           1 PAX       0.0639
     65 H14       -35.8555  -32.9300   15.5091 H           1 PAX       0.0653
     66 H15       -34.9637  -33.8553   18.3846 H           1 PAX       0.0959
     67 H16       -32.4213  -34.2670   16.7563 H           1 PAX       0.0348
     68 H17       -32.7411  -33.0610   18.0295 H           1 PAX       0.0348
     69 H18       -33.0268  -32.4950   15.3656 H           1 PAX       0.0686
     70 H19       -33.7973  -34.9477   20.1437 H           1 PAX       0.1011
     71 H20       -33.3569  -38.7888   17.5978 H           1 PAX       0.2259
     72 H21       -33.0778  -35.9731   22.1149 H           1 PAX       0.0296
     73 H22       -31.9409  -37.2736   21.7568 H           1 PAX       0.0296
     74 H23       -33.6293  -37.6506   22.1600 H           1 PAX       0.0296
@<TRIPOS>BOND
     1     1     2  ar
     2     1     3  ar
     3     1     4   1
     4     8     1   1
     5     4    23   1
     6     5     6  ar
     7     5     7  ar
     8     5     8   1
     9    38     5   1
    10     9    10  ar
    11     9    11  ar
    12     9    12  ar
    13    30     9   1
    14    13    14   1
    15    13    22   1
    16    26    13   1
    17    14    15  ar
    18    14    20  ar
    19    15    16  ar
    20    16    17  ar
    21    18    17  ar
    22    18    19   1
    23    20    18  ar
    24    21    20   1
    25    22    21   2
    26    23    24   1
    27    24    25   1
    28    24    29   1
    29    25    26   1
    30    27    26   1
    31    27    28   1
    32    29    27   1
    33    29    30   1
    34    32    31   1
    35    31    39   1
    36    33    32   1
    37    33    34   1
    38    37    33   1
    39    35    34   1
    40    36    35   1
    41    35    43   1
    42    37    36   1
    43    37    38   1
    44    39    40  ar
    45    39    41  ar
    46    39    42  ar
    47    43    44   1
    48    43    45  am
    49    44    50   2
    50    45    46   2
    51    45    47  am
    52    47    48  am
    53    48    49   2
    54    48    50   1
    55    50    51   1
    56    16    52   1
    57    19    53   1
    58    19    54   1
    59    22    55   1
    60    23    56   1
    61    23    57   1
    62    24    58   1
    63    26    59   1
    64    27    60   1
    65    28    61   1
    66    29    62   1
    67    32    63   1
    68    32    64   1
    69    33    65   1
    70    35    66   1
    71    36    67   1
    72    36    68   1
    73    37    69   1
    74    44    70   1
    75    47    71   1
    76    51    72   1
    77    51    73   1
    78    51    74   1
@<TRIPOS>SUBSTRUCTURE
     1  PAX     14

