@<TRIPOS>MOLECULE
1u1b_ligand_041
    74    78
SMALL
GAST_HUCK
****
This file was generated by PARSER (from files_GN.cpp)

@<TRIPOS>ATOM
      1 PA        -29.5389  -31.7426   18.4963 P.3         1 PAX       0.2972
      2 O1A       -29.9535  -30.7307   17.5500 O.co2       1 PAX      -0.6127
      3 O2A       -29.8475  -31.2502   19.8201 O.co2       1 PAX      -0.6127
      4 O5        -30.3011  -33.0982   18.3016 O.3         1 PAX      -0.2476
      5 PB        -26.9831  -31.1313   17.8494 P.3         1 PAX       0.2974
      6 O1B       -27.4404  -30.5763   16.5888 O.co2       1 PAX      -0.6127
      7 O2B       -26.6951  -30.0474   18.7629 O.co2       1 PAX      -0.6127
      8 O3A       -28.0275  -32.1430   18.4137 O.3         1 PAX      -0.1319
      9 PG        -33.6926  -35.7769   13.9897 P.3         1 PAX       0.2013
     10 O1G       -32.9607  -34.9251   13.0825 O.co2       1 PAX      -0.5537
     11 O2G       -33.6370  -37.1216   13.4767 O.co2       1 PAX      -0.5537
     12 O3G       -35.0761  -35.3697   14.0232 O.co2       1 PAX      -0.5537
     13 N9A       -34.6851  -35.5742   19.5235 N.pl3       1 PAX      -0.1919
     14 C4A       -34.3336  -35.2219   20.7749 C.ar        1 PAX       0.1613
     15 N3A       -33.1450  -34.8474   21.3133 N.ar        1 PAX      -0.2714
     16 C2A       -33.0632  -34.5378   22.6382 C.ar        1 PAX       0.0533
     17 N1A       -34.1750  -34.5966   23.4230 N.ar        1 PAX      -0.2698
     18 C6A       -35.3864  -34.9753   22.9355 C.ar        1 PAX       0.1298
     19 N6A       -36.4603  -35.0170   23.7384 N.pl3       1 PAX      -0.3152
     20 C5A       -35.4711  -35.3202   21.5749 C.ar        1 PAX       0.1045
     21 N7A       -36.4912  -35.7492   20.8235 N.2         1 PAX      -0.2958
     22 C8A       -35.9922  -35.9181   19.5863 C.2         1 PAX       0.1123
     23 C5        -31.5267  -33.0900   17.5373 C.3         1 PAX       0.1131
     24 C4        -32.0532  -34.5306   17.2923 C.3         1 PAX       0.1235
     25 O4        -32.5417  -35.0878   18.5301 O.3         1 PAX      -0.3360
     26 C1        -33.8678  -35.6047   18.3316 C.3         1 PAX       0.2013
     27 C2        -34.4340  -34.7574   17.1759 C.3         1 PAX       0.1432
     28 O2        -35.5510  -35.3610   16.5337 O.3         1 PAX      -0.3832
     29 C3        -33.2071  -34.6057   16.2527 C.3         1 PAX       0.1487
     30 O3        -33.0110  -35.7663   15.3950 O.3         1 PAX      -0.2674
     31 O5        -26.6303  -33.0552   13.1203 O.3         1 PAX      -0.2734
     32 C5        -25.7261  -32.2610   13.9252 C.3         1 PAX       0.1074
     33 C4        -25.6546  -32.8674   15.3485 C.3         1 PAX       0.1209
     34 O4        -24.9127  -34.0923   15.2687 O.3         1 PAX      -0.3391
     35 C1        -23.8260  -34.0625   16.2086 C.3         1 PAX       0.1760
     36 C2        -23.5953  -32.5688   16.5359 C.3         1 PAX       0.0362
     37 C3        -24.9885  -31.9396   16.3981 C.3         1 PAX       0.1284
     38 O3        -25.6618  -31.9486   17.6775 O.3         1 PAX      -0.2441
     39 PD        -26.5992  -32.8005   11.5858 P.3         1 PAX       0.2008
     40 O1D       -25.5749  -33.6422   11.0026 O.co2       1 PAX      -0.5537
     41 O2D       -26.3826  -31.4252   11.1917 O.co2       1 PAX      -0.5537
     42 O3D       -27.8632  -33.2380   11.0372 O.co2       1 PAX      -0.5537
     43 N1T       -22.5946  -34.7206   15.7690 N.am        1 PAX      -0.1736
     44 C6T       -21.6627  -35.0483   16.7225 C.2         1 PAX       0.0524
     45 C2T       -22.3031  -34.9864   14.4812 C.2         1 PAX       0.3265
     46 O2T       -23.0293  -34.6935   13.5402 O.2         1 PAX      -0.3843
     47 N3T       -21.1622  -35.5792   14.1572 N.am        1 PAX      -0.1859
     48 C4T       -20.2669  -35.9131   15.0755 C.2         1 PAX       0.1930
     49 O4T       -19.2483  -36.4655   14.6860 O.2         1 PAX      -0.4079
     50 C5T       -20.4815  -35.6408   16.4031 C.2         1 PAX       0.0225
     51 CM5       -19.4756  -35.9432   17.4169 C.3         1 PAX      -0.0437
     52 H1        -32.1679  -34.2638   23.0429 H           1 PAX       0.0996
     53 H2        -37.3232  -35.2778   23.3827 H           1 PAX       0.1820
     54 H3        -36.3784  -34.7721   24.6732 H           1 PAX       0.1820
     55 H4        -36.5579  -36.2494   18.8009 H           1 PAX       0.1349
     56 H5        -31.3553  -32.6295   16.5599 H           1 PAX       0.0648
     57 H6        -32.2918  -32.5206   18.0670 H           1 PAX       0.0648
     58 H7        -31.2131  -35.1409   16.9549 H           1 PAX       0.0654
     59 H8        -33.7789  -36.6478   18.0151 H           1 PAX       0.0996
     60 H9        -34.7346  -33.7772   17.5572 H           1 PAX       0.0680
     61 H10       -35.8471  -34.7027   15.8721 H           1 PAX       0.2101
     62 H11       -33.2831  -33.6693   15.6843 H           1 PAX       0.0704
     63 H12       -26.1158  -31.2396   13.9785 H           1 PAX       0.0639
     64 H13       -24.7089  -32.2241   13.5040 H           1 PAX       0.0639
     65 H14       -26.6660  -33.1243   15.6578 H           1 PAX       0.0653
     66 H15       -24.2109  -34.5747   17.1020 H           1 PAX       0.0959
     67 H16       -22.9043  -32.1315   15.8043 H           1 PAX       0.0348
     68 H17       -23.1776  -32.4373   17.5380 H           1 PAX       0.0348
     69 H18       -24.8558  -30.9197   16.0337 H           1 PAX       0.0686
     70 H19       -21.8472  -34.8314   17.6794 H           1 PAX       0.1011
     71 H20       -20.9740  -35.7642   13.2315 H           1 PAX       0.2259
     72 H21       -19.7951  -35.6797   18.4288 H           1 PAX       0.0296
     73 H22       -18.5608  -35.3878   17.1995 H           1 PAX       0.0296
     74 H23       -19.2461  -37.0106   17.4081 H           1 PAX       0.0296
@<TRIPOS>BOND
     1     1     2  ar
     2     1     3  ar
     3     1     4   1
     4     8     1   1
     5     4    23   1
     6     5     6  ar
     7     5     7  ar
     8     5     8   1
     9    38     5   1
    10     9    10  ar
    11     9    11  ar
    12     9    12  ar
    13    30     9   1
    14    13    14   1
    15    13    22   1
    16    26    13   1
    17    14    15  ar
    18    14    20  ar
    19    15    16  ar
    20    16    17  ar
    21    18    17  ar
    22    18    19   1
    23    20    18  ar
    24    21    20   1
    25    22    21   2
    26    23    24   1
    27    24    25   1
    28    24    29   1
    29    25    26   1
    30    27    26   1
    31    27    28   1
    32    29    27   1
    33    29    30   1
    34    32    31   1
    35    31    39   1
    36    33    32   1
    37    33    34   1
    38    37    33   1
    39    35    34   1
    40    36    35   1
    41    35    43   1
    42    37    36   1
    43    37    38   1
    44    39    40  ar
    45    39    41  ar
    46    39    42  ar
    47    43    44   1
    48    43    45  am
    49    44    50   2
    50    45    46   2
    51    45    47  am
    52    47    48  am
    53    48    49   2
    54    48    50   1
    55    50    51   1
    56    16    52   1
    57    19    53   1
    58    19    54   1
    59    22    55   1
    60    23    56   1
    61    23    57   1
    62    24    58   1
    63    26    59   1
    64    27    60   1
    65    28    61   1
    66    29    62   1
    67    32    63   1
    68    32    64   1
    69    33    65   1
    70    35    66   1
    71    36    67   1
    72    36    68   1
    73    37    69   1
    74    44    70   1
    75    47    71   1
    76    51    72   1
    77    51    73   1
    78    51    74   1
@<TRIPOS>SUBSTRUCTURE
     1  PAX     14

