@<TRIPOS>MOLECULE
1u1b_ligand_067
    74    78
SMALL
GAST_HUCK
****
This file was generated by PARSER (from files_GN.cpp)

@<TRIPOS>ATOM
      1 PA        -33.2180  -30.3438   16.9062 P.3         1 PAX       0.2972
      2 O1A       -34.1033  -31.4632   16.7135 O.co2       1 PAX      -0.6127
      3 O2A       -34.0637  -29.3812   17.5623 O.co2       1 PAX      -0.6127
      4 O5        -32.1181  -30.5706   17.9914 O.3         1 PAX      -0.2476
      5 PB        -32.4297  -30.3643   14.3382 P.3         1 PAX       0.2974
      6 O1B       -32.4579  -31.8102   14.3568 O.co2       1 PAX      -0.6127
      7 O2B       -33.4642  -30.0050   13.3965 O.co2       1 PAX      -0.6127
      8 O3A       -32.7967  -29.5623   15.6224 O.3         1 PAX      -0.1319
      9 PG        -28.2278  -29.4110   21.0413 P.3         1 PAX       0.2013
     10 O1G       -28.6016  -28.3724   21.9751 O.co2       1 PAX      -0.5537
     11 O2G       -28.1691  -30.6564   21.7715 O.co2       1 PAX      -0.5537
     12 O3G       -26.9102  -29.0494   20.5848 O.co2       1 PAX      -0.5537
     13 N9A       -26.8349  -32.9548   17.9462 N.pl3       1 PAX      -0.1919
     14 C4A       -27.1123  -33.7934   16.9315 C.ar        1 PAX       0.1613
     15 N3A       -28.2876  -34.1448   16.3420 N.ar        1 PAX      -0.2714
     16 C2A       -28.2827  -35.0445   15.3203 C.ar        1 PAX       0.0533
     17 N1A       -27.1091  -35.5902   14.8834 N.ar        1 PAX      -0.2698
     18 C6A       -25.9147  -35.2647   15.4475 C.ar        1 PAX       0.1298
     19 N6A       -24.7778  -35.8070   14.9792 N.pl3       1 PAX      -0.3152
     20 C5A       -25.9037  -34.3472   16.5140 C.ar        1 PAX       0.1045
     21 N7A       -24.9096  -33.8447   17.2598 N.2         1 PAX      -0.2958
     22 C8A       -25.4929  -32.9968   18.1305 C.2         1 PAX       0.1123
     23 C5        -31.1677  -31.6366   17.7665 C.3         1 PAX       0.1131
     24 C4        -30.0189  -31.5250   18.8037 C.3         1 PAX       0.1235
     25 O4        -29.1157  -32.6340   18.6127 O.3         1 PAX      -0.3360
     26 C1        -27.7622  -32.1422   18.6823 C.3         1 PAX       0.2013
     27 C2        -27.8240  -30.6972   18.1463 C.3         1 PAX       0.1432
     28 O2        -26.7111  -29.8896   18.5493 O.3         1 PAX      -0.3832
     29 C3        -29.1882  -30.2077   18.6840 C.3         1 PAX       0.1487
     30 O3        -29.2454  -29.3627   19.8627 O.3         1 PAX      -0.2674
     31 O5        -31.3960  -27.2050   16.7132 O.3         1 PAX      -0.2734
     32 C5        -30.4057  -26.8065   15.7456 C.3         1 PAX       0.1074
     33 C4        -30.6770  -27.5486   14.4135 C.3         1 PAX       0.1209
     34 O4        -29.9495  -26.8599   13.3816 O.3         1 PAX      -0.3391
     35 C1        -29.0094  -27.7568   12.7708 C.3         1 PAX       0.1760
     36 C2        -28.8731  -28.9663   13.7111 C.3         1 PAX       0.0362
     37 C3        -30.2348  -29.0387   14.4102 C.3         1 PAX       0.1284
     38 O3        -31.1302  -29.8618   13.6316 O.3         1 PAX      -0.2441
     39 PD        -31.0157  -27.0239   18.2087 P.3         1 PAX       0.2008
     40 O1D       -31.5750  -25.8363   18.8119 O.co2       1 PAX      -0.5537
     41 O2D       -29.5929  -27.0644   18.4271 O.co2       1 PAX      -0.5537
     42 O3D       -31.5997  -28.1418   18.9068 O.co2       1 PAX      -0.5537
     43 N1T       -27.7108  -27.1659   12.4781 N.am        1 PAX      -0.1736
     44 C6T       -27.2312  -26.1240   13.2272 C.2         1 PAX       0.0524
     45 C2T       -26.9118  -27.6809   11.5227 C.2         1 PAX       0.3265
     46 O2T       -27.2213  -28.6420   10.8321 O.2         1 PAX      -0.3843
     47 N3T       -25.7156  -27.1488   11.2905 N.am        1 PAX      -0.1859
     48 C4T       -25.2688  -26.1045   11.9791 C.2         1 PAX       0.1930
     49 O4T       -24.1725  -25.6604   11.6722 O.2         1 PAX      -0.4079
     50 C5T       -26.0197  -25.5633   13.0015 C.2         1 PAX       0.0225
     51 CM5       -25.5274  -24.4434   13.7978 C.3         1 PAX      -0.0437
     52 H1        -29.1623  -35.3083   14.8772 H           1 PAX       0.0996
     53 H2        -23.9264  -35.5567   15.3714 H           1 PAX       0.1820
     54 H3        -24.8053  -36.4372   14.2434 H           1 PAX       0.1820
     55 H4        -24.9769  -32.4624   18.8302 H           1 PAX       0.1349
     56 H5        -30.7261  -31.5838   16.7676 H           1 PAX       0.0648
     57 H6        -31.6561  -32.6108   17.8889 H           1 PAX       0.0648
     58 H7        -30.4503  -31.6189   19.8014 H           1 PAX       0.0654
     59 H8        -27.4621  -32.1301   19.7366 H           1 PAX       0.0996
     60 H9        -27.8495  -30.7026   17.0456 H           1 PAX       0.0680
     61 H10       -25.9727  -30.1216   17.9401 H           1 PAX       0.2101
     62 H11       -29.6168  -29.5709   17.9063 H           1 PAX       0.0704
     63 H12       -29.3902  -27.0589   16.0659 H           1 PAX       0.0639
     64 H13       -30.4583  -25.7258   15.5719 H           1 PAX       0.0639
     65 H14       -31.7440  -27.4691   14.1922 H           1 PAX       0.0653
     66 H15       -29.4948  -28.0765   11.8428 H           1 PAX       0.0959
     67 H16       -28.0952  -28.7835   14.4549 H           1 PAX       0.0348
     68 H17       -28.6353  -29.8838   13.1667 H           1 PAX       0.0348
     69 H18       -30.0725  -29.4411   15.4143 H           1 PAX       0.0686
     70 H19       -27.7839  -25.7690   13.9751 H           1 PAX       0.1011
     71 H20       -25.1552  -27.5290   10.5955 H           1 PAX       0.2259
     72 H21       -26.2115  -24.1638   14.6020 H           1 PAX       0.0296
     73 H22       -25.3917  -23.5721   13.1547 H           1 PAX       0.0296
     74 H23       -24.5676  -24.7003   14.2509 H           1 PAX       0.0296
@<TRIPOS>BOND
     1     1     2  ar
     2     1     3  ar
     3     1     4   1
     4     8     1   1
     5     4    23   1
     6     5     6  ar
     7     5     7  ar
     8     5     8   1
     9    38     5   1
    10     9    10  ar
    11     9    11  ar
    12     9    12  ar
    13    30     9   1
    14    13    14   1
    15    13    22   1
    16    26    13   1
    17    14    15  ar
    18    14    20  ar
    19    15    16  ar
    20    16    17  ar
    21    18    17  ar
    22    18    19   1
    23    20    18  ar
    24    21    20   1
    25    22    21   2
    26    23    24   1
    27    24    25   1
    28    24    29   1
    29    25    26   1
    30    27    26   1
    31    27    28   1
    32    29    27   1
    33    29    30   1
    34    32    31   1
    35    31    39   1
    36    33    32   1
    37    33    34   1
    38    37    33   1
    39    35    34   1
    40    36    35   1
    41    35    43   1
    42    37    36   1
    43    37    38   1
    44    39    40  ar
    45    39    41  ar
    46    39    42  ar
    47    43    44   1
    48    43    45  am
    49    44    50   2
    50    45    46   2
    51    45    47  am
    52    47    48  am
    53    48    49   2
    54    48    50   1
    55    50    51   1
    56    16    52   1
    57    19    53   1
    58    19    54   1
    59    22    55   1
    60    23    56   1
    61    23    57   1
    62    24    58   1
    63    26    59   1
    64    27    60   1
    65    28    61   1
    66    29    62   1
    67    32    63   1
    68    32    64   1
    69    33    65   1
    70    35    66   1
    71    36    67   1
    72    36    68   1
    73    37    69   1
    74    44    70   1
    75    47    71   1
    76    51    72   1
    77    51    73   1
    78    51    74   1
@<TRIPOS>SUBSTRUCTURE
     1  PAX     14

