@<TRIPOS>MOLECULE
1u1b_ligand_086
    74    78
SMALL
GAST_HUCK
****
This file was generated by PARSER (from files_GN.cpp)

@<TRIPOS>ATOM
      1 PA        -30.6858  -32.5050   16.7686 P.3         1 PAX       0.2972
      2 O1A       -31.6946  -31.4856   16.9291 O.co2       1 PAX      -0.6127
      3 O2A       -29.6346  -31.9268   15.9685 O.co2       1 PAX      -0.6127
      4 O5        -30.0179  -33.0388   18.0765 O.3         1 PAX      -0.2476
      5 PB        -32.2540  -34.6182   16.6015 P.3         1 PAX       0.2974
      6 O1B       -32.3426  -35.7641   15.7338 O.co2       1 PAX      -0.6127
      7 O2B       -31.8298  -35.1154   17.8858 O.co2       1 PAX      -0.6127
      8 O3A       -31.1764  -33.7168   15.9260 O.3         1 PAX      -0.1319
      9 PG        -26.0382  -31.3712   18.5851 P.3         1 PAX       0.2013
     10 O1G       -26.0082  -30.9930   17.1942 O.co2       1 PAX      -0.5537
     11 O2G       -24.6648  -31.4383   19.0215 O.co2       1 PAX      -0.5537
     12 O3G       -26.6235  -32.6821   18.6753 O.co2       1 PAX      -0.5537
     13 N9A       -30.5658  -27.7433   20.2225 N.pl3       1 PAX      -0.1919
     14 C4A       -31.3337  -26.9506   19.4488 C.ar        1 PAX       0.1613
     15 N3A       -31.3674  -26.7500   18.1058 N.ar        1 PAX      -0.2714
     16 C2A       -32.2542  -25.8639   17.5673 C.ar        1 PAX       0.0533
     17 N1A       -33.1119  -25.1796   18.3755 N.ar        1 PAX      -0.2698
     18 C6A       -33.1163  -25.3469   19.7262 C.ar        1 PAX       0.1298
     19 N6A       -33.9753  -24.6700   20.5034 N.pl3       1 PAX      -0.3152
     20 C5A       -32.2003  -26.2529   20.2873 C.ar        1 PAX       0.1045
     21 N7A       -31.9706  -26.6249   21.5485 N.2         1 PAX      -0.2958
     22 C8A       -30.9679  -27.5199   21.5011 C.2         1 PAX       0.1123
     23 C5        -29.9129  -32.1741   19.2155 C.3         1 PAX       0.1131
     24 C4        -29.1917  -30.8013   19.0118 C.3         1 PAX       0.1235
     25 O4        -30.1724  -29.7554   19.1268 O.3         1 PAX      -0.3360
     26 C1        -29.5437  -28.6216   19.7180 C.3         1 PAX       0.2013
     27 C2        -28.5341  -29.2254   20.7151 C.3         1 PAX       0.1432
     28 O2        -27.4945  -28.3002   21.0228 O.3         1 PAX      -0.3832
     29 C3        -28.0266  -30.4931   20.0044 C.3         1 PAX       0.1487
     30 O3        -26.7545  -30.2216   19.3638 O.3         1 PAX      -0.2674
     31 O5        -37.5350  -32.3866   15.7353 O.3         1 PAX      -0.2734
     32 C5        -36.6561  -33.5307   15.7731 C.3         1 PAX       0.1074
     33 C4        -35.9929  -33.6915   17.1676 C.3         1 PAX       0.1209
     34 O4        -36.8914  -34.2811   18.1125 O.3         1 PAX      -0.3391
     35 C1        -36.1066  -34.7122   19.2407 C.3         1 PAX       0.1760
     36 C2        -34.7104  -35.0474   18.6398 C.3         1 PAX       0.0362
     37 C3        -34.7712  -34.6243   17.1600 C.3         1 PAX       0.1284
     38 O3        -33.6323  -33.8883   16.6611 O.3         1 PAX      -0.2441
     39 PD        -36.9088  -31.0053   15.3574 P.3         1 PAX       0.2008
     40 O1D       -37.9127  -29.9977   15.5863 O.co2       1 PAX      -0.5537
     41 O2D       -36.5740  -30.9500   13.9563 O.co2       1 PAX      -0.5537
     42 O3D       -35.7500  -30.6324   16.1300 O.co2       1 PAX      -0.5537
     43 N1T       -36.6968  -35.7810   20.0471 N.am        1 PAX      -0.1736
     44 C6T       -35.9209  -36.3859   21.0039 C.2         1 PAX       0.0524
     45 C2T       -37.9753  -36.1902   19.9295 C.2         1 PAX       0.3265
     46 O2T       -38.7999  -35.6937   19.1710 O.2         1 PAX      -0.3843
     47 N3T       -38.4366  -37.1888   20.6780 N.am        1 PAX      -0.1859
     48 C4T       -37.6631  -37.8192   21.5553 C.2         1 PAX       0.1930
     49 O4T       -38.1712  -38.7366   22.1873 O.2         1 PAX      -0.4079
     50 C5T       -36.3561  -37.4375   21.7380 C.2         1 PAX       0.0225
     51 CM5       -35.4734  -38.1559   22.6543 C.3         1 PAX      -0.0437
     52 H1        -32.2741  -25.7101   16.5590 H           1 PAX       0.0996
     53 H2        -33.9714  -24.8115   21.4649 H           1 PAX       0.1820
     54 H3        -34.6025  -24.0434   20.1074 H           1 PAX       0.1820
     55 H4        -30.6033  -27.9760   22.3362 H           1 PAX       0.1349
     56 H5        -29.3636  -32.7694   19.9421 H           1 PAX       0.0648
     57 H6        -30.9121  -32.0315   19.6359 H           1 PAX       0.0648
     58 H7        -28.7927  -30.7452   17.9968 H           1 PAX       0.0654
     59 H8        -28.9738  -28.0886   18.9464 H           1 PAX       0.0996
     60 H9        -29.0310  -29.5150   21.6433 H           1 PAX       0.0680
     61 H10       -27.9105  -27.4217   20.9225 H           1 PAX       0.2101
     62 H11       -27.8884  -31.2743   20.7584 H           1 PAX       0.0704
     63 H12       -35.8988  -33.4995   14.9818 H           1 PAX       0.0639
     64 H13       -37.2661  -34.4163   15.5782 H           1 PAX       0.0639
     65 H14       -35.6970  -32.7065   17.5444 H           1 PAX       0.0653
     66 H15       -36.0092  -33.8429   19.9036 H           1 PAX       0.0959
     67 H16       -34.4700  -36.1129   18.7095 H           1 PAX       0.0348
     68 H17       -33.9431  -34.4756   19.1718 H           1 PAX       0.0348
     69 H18       -34.9926  -35.5003   16.5355 H           1 PAX       0.0686
     70 H19       -34.9900  -36.0632   21.1496 H           1 PAX       0.1011
     71 H20       -39.3611  -37.4652   20.5786 H           1 PAX       0.2259
     72 H21       -34.4551  -37.7584   22.6596 H           1 PAX       0.0296
     73 H22       -35.4177  -39.2056   22.3588 H           1 PAX       0.0296
     74 H23       -35.8653  -38.0958   23.6712 H           1 PAX       0.0296
@<TRIPOS>BOND
     1     1     2  ar
     2     1     3  ar
     3     1     4   1
     4     8     1   1
     5     4    23   1
     6     5     6  ar
     7     5     7  ar
     8     5     8   1
     9    38     5   1
    10     9    10  ar
    11     9    11  ar
    12     9    12  ar
    13    30     9   1
    14    13    14   1
    15    13    22   1
    16    26    13   1
    17    14    15  ar
    18    14    20  ar
    19    15    16  ar
    20    16    17  ar
    21    18    17  ar
    22    18    19   1
    23    20    18  ar
    24    21    20   1
    25    22    21   2
    26    23    24   1
    27    24    25   1
    28    24    29   1
    29    25    26   1
    30    27    26   1
    31    27    28   1
    32    29    27   1
    33    29    30   1
    34    32    31   1
    35    31    39   1
    36    33    32   1
    37    33    34   1
    38    37    33   1
    39    35    34   1
    40    36    35   1
    41    35    43   1
    42    37    36   1
    43    37    38   1
    44    39    40  ar
    45    39    41  ar
    46    39    42  ar
    47    43    44   1
    48    43    45  am
    49    44    50   2
    50    45    46   2
    51    45    47  am
    52    47    48  am
    53    48    49   2
    54    48    50   1
    55    50    51   1
    56    16    52   1
    57    19    53   1
    58    19    54   1
    59    22    55   1
    60    23    56   1
    61    23    57   1
    62    24    58   1
    63    26    59   1
    64    27    60   1
    65    28    61   1
    66    29    62   1
    67    32    63   1
    68    32    64   1
    69    33    65   1
    70    35    66   1
    71    36    67   1
    72    36    68   1
    73    37    69   1
    74    44    70   1
    75    47    71   1
    76    51    72   1
    77    51    73   1
    78    51    74   1
@<TRIPOS>SUBSTRUCTURE
     1  PAX     14

