@<TRIPOS>MOLECULE
1u1b_ligand_080
    74    78
SMALL
GAST_HUCK
****
This file was generated by PARSER (from files_GN.cpp)

@<TRIPOS>ATOM
      1 PA        -35.2202  -35.4668   14.8076 P.3         1 PAX       0.2972
      2 O1A       -35.9246  -35.2216   13.5707 O.co2       1 PAX      -0.6127
      3 O2A       -34.8151  -36.8533   14.8341 O.co2       1 PAX      -0.6127
      4 O5        -33.9474  -34.5661   14.7685 O.3         1 PAX      -0.2476
      5 PB        -37.4289  -35.8095   16.2837 P.3         1 PAX       0.2974
      6 O1B       -38.4209  -35.1827   15.4445 O.co2       1 PAX      -0.6127
      7 O2B       -37.4357  -37.2197   15.9755 O.co2       1 PAX      -0.6127
      8 O3A       -36.0362  -35.1370   16.0945 O.3         1 PAX      -0.1319
      9 PG        -28.6064  -35.9312   13.7786 P.3         1 PAX       0.2013
     10 O1G       -27.2917  -35.4264   14.0844 O.co2       1 PAX      -0.5537
     11 O2G       -28.7922  -37.2364   14.3557 O.co2       1 PAX      -0.5537
     12 O3G       -28.6267  -36.1132   12.3494 O.co2       1 PAX      -0.5537
     13 N9A       -29.8573  -31.8091   17.6081 N.pl3       1 PAX      -0.1919
     14 C4A       -28.6622  -31.2764   17.9197 C.ar        1 PAX       0.1613
     15 N3A       -27.4714  -31.2997   17.2689 N.ar        1 PAX      -0.2714
     16 C2A       -26.3945  -30.6709   17.8084 C.ar        1 PAX       0.0533
     17 N1A       -26.5124  -30.0010   18.9885 N.ar        1 PAX      -0.2698
     18 C6A       -27.6865  -29.9511   19.6762 C.ar        1 PAX       0.1298
     19 N6A       -27.7565  -29.2775   20.8356 N.pl3       1 PAX      -0.3152
     20 C5A       -28.8024  -30.6074   19.1311 C.ar        1 PAX       0.1045
     21 N7A       -30.0671  -30.7443   19.5490 N.2         1 PAX      -0.2958
     22 C8A       -30.6997  -31.4736   18.6115 C.2         1 PAX       0.1123
     23 C5        -32.9037  -34.8790   15.7199 C.3         1 PAX       0.1131
     24 C4        -31.6246  -34.0414   15.4048 C.3         1 PAX       0.1235
     25 O4        -31.5377  -32.9493   16.3318 O.3         1 PAX      -0.3360
     26 C1        -30.1551  -32.5846   16.4352 C.3         1 PAX       0.2013
     27 C2        -29.4227  -33.9372   16.4196 C.3         1 PAX       0.1432
     28 O2        -28.0569  -33.7859   16.0553 O.3         1 PAX      -0.3832
     29 C3        -30.2689  -34.8113   15.4656 C.3         1 PAX       0.1487
     30 O3        -29.7613  -34.9347   14.1086 O.3         1 PAX      -0.2674
     31 O5        -35.5888  -34.2507   21.1927 O.3         1 PAX      -0.2734
     32 C5        -35.9412  -35.6222   20.9342 C.3         1 PAX       0.1074
     33 C4        -37.2538  -35.6754   20.1116 C.3         1 PAX       0.1209
     34 O4        -38.3013  -35.0528   20.8634 O.3         1 PAX      -0.3391
     35 C1        -38.8288  -33.9280   20.1425 C.3         1 PAX       0.1760
     36 C2        -37.8239  -33.6139   19.0177 C.3         1 PAX       0.0362
     37 C3        -37.1761  -34.9737   18.7316 C.3         1 PAX       0.1284
     38 O3        -37.9269  -35.7419   17.7646 O.3         1 PAX      -0.2441
     39 PD        -34.1429  -33.9737   21.6955 P.3         1 PAX       0.2008
     40 O1D       -33.1559  -34.8501   21.1179 O.co2       1 PAX      -0.5537
     41 O2D       -34.0735  -33.9675   23.1320 O.co2       1 PAX      -0.5537
     42 O3D       -33.8205  -32.6469   21.2431 O.co2       1 PAX      -0.5537
     43 N1T       -39.1406  -32.7557   20.9576 N.am        1 PAX      -0.1736
     44 C6T       -40.0856  -31.8751   20.5071 C.2         1 PAX       0.0524
     45 C2T       -38.5190  -32.4738   22.1280 C.2         1 PAX       0.3265
     46 O2T       -37.6269  -33.1509   22.6245 O.2         1 PAX      -0.3843
     47 N3T       -38.8491  -31.3875   22.8167 N.am        1 PAX      -0.1859
     48 C4T       -39.7909  -30.5488   22.3952 C.2         1 PAX       0.1930
     49 O4T       -40.0190  -29.5749   23.1016 O.2         1 PAX      -0.4079
     50 C5T       -40.4452  -30.7727   21.2044 C.2         1 PAX       0.0225
     51 CM5       -41.4745  -29.8460   20.7329 C.3         1 PAX      -0.0437
     52 H1        -25.5003  -30.6884   17.3162 H           1 PAX       0.0996
     53 H2        -28.5922  -29.2404   21.3277 H           1 PAX       0.1820
     54 H3        -26.9709  -28.8274   21.1851 H           1 PAX       0.1820
     55 H4        -31.6848  -31.7381   18.6737 H           1 PAX       0.1349
     56 H5        -32.6643  -35.9433   15.6576 H           1 PAX       0.0648
     57 H6        -33.2388  -34.6659   16.7458 H           1 PAX       0.0648
     58 H7        -31.7393  -33.5983   14.4055 H           1 PAX       0.0654
     59 H8        -29.8886  -31.9963   15.5474 H           1 PAX       0.0996
     60 H9        -29.4509  -34.3735   17.4221 H           1 PAX       0.0680
     61 H10       -27.6411  -34.6462   16.2689 H           1 PAX       0.2101
     62 H11       -30.4150  -35.7932   15.9269 H           1 PAX       0.0704
     63 H12       -36.0852  -36.1636   21.8759 H           1 PAX       0.0639
     64 H13       -35.1712  -36.1331   20.3491 H           1 PAX       0.0639
     65 H14       -37.5215  -36.7247   19.9860 H           1 PAX       0.0653
     66 H15       -39.7601  -34.2967   19.7005 H           1 PAX       0.0959
     67 H16       -37.0780  -32.8999   19.3674 H           1 PAX       0.0348
     68 H17       -38.3253  -33.1977   18.1430 H           1 PAX       0.0348
     69 H18       -36.1271  -34.8508   18.4462 H           1 PAX       0.0686
     70 H19       -40.5414  -32.0579   19.6429 H           1 PAX       0.1011
     71 H20       -38.4027  -31.2034   23.6591 H           1 PAX       0.2259
     72 H21       -41.9155  -30.1477   19.7793 H           1 PAX       0.0296
     73 H22       -41.0441  -28.8490   20.6044 H           1 PAX       0.0296
     74 H23       -42.2781  -29.7884   21.4716 H           1 PAX       0.0296
@<TRIPOS>BOND
     1     1     2  ar
     2     1     3  ar
     3     1     4   1
     4     8     1   1
     5     4    23   1
     6     5     6  ar
     7     5     7  ar
     8     5     8   1
     9    38     5   1
    10     9    10  ar
    11     9    11  ar
    12     9    12  ar
    13    30     9   1
    14    13    14   1
    15    13    22   1
    16    26    13   1
    17    14    15  ar
    18    14    20  ar
    19    15    16  ar
    20    16    17  ar
    21    18    17  ar
    22    18    19   1
    23    20    18  ar
    24    21    20   1
    25    22    21   2
    26    23    24   1
    27    24    25   1
    28    24    29   1
    29    25    26   1
    30    27    26   1
    31    27    28   1
    32    29    27   1
    33    29    30   1
    34    32    31   1
    35    31    39   1
    36    33    32   1
    37    33    34   1
    38    37    33   1
    39    35    34   1
    40    36    35   1
    41    35    43   1
    42    37    36   1
    43    37    38   1
    44    39    40  ar
    45    39    41  ar
    46    39    42  ar
    47    43    44   1
    48    43    45  am
    49    44    50   2
    50    45    46   2
    51    45    47  am
    52    47    48  am
    53    48    49   2
    54    48    50   1
    55    50    51   1
    56    16    52   1
    57    19    53   1
    58    19    54   1
    59    22    55   1
    60    23    56   1
    61    23    57   1
    62    24    58   1
    63    26    59   1
    64    27    60   1
    65    28    61   1
    66    29    62   1
    67    32    63   1
    68    32    64   1
    69    33    65   1
    70    35    66   1
    71    36    67   1
    72    36    68   1
    73    37    69   1
    74    44    70   1
    75    47    71   1
    76    51    72   1
    77    51    73   1
    78    51    74   1
@<TRIPOS>SUBSTRUCTURE
     1  PAX     14

