@<TRIPOS>MOLECULE
1u1b_ligand_040
    74    78
SMALL
GAST_HUCK
****
This file was generated by PARSER (from files_GN.cpp)

@<TRIPOS>ATOM
      1 PA        -29.7303  -29.4330   18.3258 P.3         1 PAX       0.2972
      2 O1A       -29.3666  -29.6132   16.9444 O.co2       1 PAX      -0.6127
      3 O2A       -28.7367  -28.6074   18.9607 O.co2       1 PAX      -0.6127
      4 O5        -31.1284  -28.7522   18.4708 O.3         1 PAX      -0.2476
      5 PB        -29.1558  -32.0348   18.7597 P.3         1 PAX       0.2974
      6 O1B       -28.0198  -31.9685   17.8709 O.co2       1 PAX      -0.6127
      7 O2B       -28.6373  -32.5279   20.0052 O.co2       1 PAX      -0.6127
      8 O3A       -29.8850  -30.7274   19.1803 O.3         1 PAX      -0.1319
      9 PG        -33.1202  -25.6926   20.4712 P.3         1 PAX       0.2013
     10 O1G       -33.9207  -26.6141   19.7081 O.co2       1 PAX      -0.5537
     11 O2G       -32.3056  -26.4149   21.4103 O.co2       1 PAX      -0.5537
     12 O3G       -34.0309  -24.8910   21.2482 O.co2       1 PAX      -0.5537
     13 N9A       -28.7767  -23.8175   16.5487 N.pl3       1 PAX      -0.1919
     14 C4A       -28.2037  -24.3736   15.4615 C.ar        1 PAX       0.1613
     15 N3A       -28.1617  -25.6537   15.0116 N.ar        1 PAX      -0.2714
     16 C2A       -27.5042  -25.9527   13.8589 C.ar        1 PAX       0.0533
     17 N1A       -26.8944  -24.9644   13.1425 N.ar        1 PAX      -0.2698
     18 C6A       -26.9067  -23.6676   13.5503 C.ar        1 PAX       0.1298
     19 N6A       -26.2957  -22.7261   12.8058 N.pl3       1 PAX      -0.3152
     20 C5A       -27.5716  -23.3547   14.7490 C.ar        1 PAX       0.1045
     21 N7A       -27.7523  -22.2024   15.4055 N.2         1 PAX      -0.2958
     22 C8A       -28.4764  -22.4993   16.4977 C.2         1 PAX       0.1123
     23 C5        -31.4367  -27.5912   17.6717 C.3         1 PAX       0.1131
     24 C4        -30.8267  -26.2681   18.2240 C.3         1 PAX       0.1235
     25 O4        -29.7350  -25.8577   17.3879 O.3         1 PAX      -0.3360
     26 C1        -29.5512  -24.4507   17.5849 C.3         1 PAX       0.2013
     27 C2        -30.9918  -23.9063   17.6832 C.3         1 PAX       0.1432
     28 O2        -31.0405  -22.6864   18.4261 O.3         1 PAX      -0.3832
     29 C3        -31.8095  -25.0618   18.3094 C.3         1 PAX       0.1487
     30 O3        -32.2263  -24.7099   19.6498 O.3         1 PAX      -0.2674
     31 O5        -31.9104  -32.1587   14.4974 O.3         1 PAX      -0.2734
     32 C5        -32.0775  -31.3260   15.6627 C.3         1 PAX       0.1074
     33 C4        -32.0457  -32.1895   16.9503 C.3         1 PAX       0.1209
     34 O4        -33.2243  -32.9988   16.9372 O.3         1 PAX      -0.3391
     35 C1        -32.8731  -34.3422   17.2723 C.3         1 PAX       0.1760
     36 C2        -31.4062  -34.5104   16.8258 C.3         1 PAX       0.0362
     37 C3        -30.7978  -33.1187   17.0758 C.3         1 PAX       0.1284
     38 O3        -30.1881  -33.1404   18.3853 O.3         1 PAX      -0.2441
     39 PD        -31.2076  -31.5219   13.2642 P.3         1 PAX       0.2008
     40 O1D       -31.2562  -32.4611   12.1742 O.co2       1 PAX      -0.5537
     41 O2D       -29.8183  -31.2851   13.5633 O.co2       1 PAX      -0.5537
     42 O3D       -31.8270  -30.2930   12.8401 O.co2       1 PAX      -0.5537
     43 N1T       -33.8436  -35.2434   16.6660 N.am        1 PAX      -0.1736
     44 C6T       -33.9823  -35.2660   15.3054 C.2         1 PAX       0.0524
     45 C2T       -34.6772  -36.0101   17.3983 C.2         1 PAX       0.3265
     46 O2T       -34.6710  -36.0321   18.6216 O.2         1 PAX      -0.3843
     47 N3T       -35.5822  -36.7819   16.7993 N.am        1 PAX      -0.1859
     48 C4T       -35.6884  -36.8336   15.4760 C.2         1 PAX       0.1930
     49 O4T       -36.5478  -37.5745   15.0147 O.2         1 PAX      -0.4079
     50 C5T       -34.8725  -36.0672   14.6760 C.2         1 PAX       0.0225
     51 CM5       -34.9596  -36.1258   13.2188 C.3         1 PAX      -0.0437
     52 H1        -27.4685  -26.9164   13.5270 H           1 PAX       0.0996
     53 H2        -26.2835  -21.7998   13.0993 H           1 PAX       0.1820
     54 H3        -25.8742  -22.9741   11.9653 H           1 PAX       0.1820
     55 H4        -28.7635  -21.8023   17.1873 H           1 PAX       0.1349
     56 H5        -32.5249  -27.5265   17.6786 H           1 PAX       0.0648
     57 H6        -31.1630  -27.7336   16.6226 H           1 PAX       0.0648
     58 H7        -30.4240  -26.4590   19.2218 H           1 PAX       0.0654
     59 H8        -29.0280  -24.3086   18.5372 H           1 PAX       0.0996
     60 H9        -31.3684  -23.7016   16.6757 H           1 PAX       0.0680
     61 H10       -31.9845  -22.4205   18.4274 H           1 PAX       0.2101
     62 H11       -32.6957  -25.2162   17.6844 H           1 PAX       0.0704
     63 H12       -33.0469  -30.8241   15.5841 H           1 PAX       0.0639
     64 H13       -31.3086  -30.5620   15.7589 H           1 PAX       0.0639
     65 H14       -32.1163  -31.5282   17.8146 H           1 PAX       0.0653
     66 H15       -32.8917  -34.4038   18.3645 H           1 PAX       0.0959
     67 H16       -31.3339  -34.7558   15.7631 H           1 PAX       0.0348
     68 H17       -30.9035  -35.2977   17.3946 H           1 PAX       0.0348
     69 H18       -30.0446  -32.9157   16.3072 H           1 PAX       0.0686
     70 H19       -33.4167  -34.6589   14.7568 H           1 PAX       0.1011
     71 H20       -36.1795  -37.3225   17.3434 H           1 PAX       0.2259
     72 H21       -34.2414  -35.4664   12.7263 H           1 PAX       0.0296
     73 H22       -35.9605  -35.8368   12.8913 H           1 PAX       0.0296
     74 H23       -34.7603  -37.1452   12.8819 H           1 PAX       0.0296
@<TRIPOS>BOND
     1     1     2  ar
     2     1     3  ar
     3     1     4   1
     4     8     1   1
     5     4    23   1
     6     5     6  ar
     7     5     7  ar
     8     5     8   1
     9    38     5   1
    10     9    10  ar
    11     9    11  ar
    12     9    12  ar
    13    30     9   1
    14    13    14   1
    15    13    22   1
    16    26    13   1
    17    14    15  ar
    18    14    20  ar
    19    15    16  ar
    20    16    17  ar
    21    18    17  ar
    22    18    19   1
    23    20    18  ar
    24    21    20   1
    25    22    21   2
    26    23    24   1
    27    24    25   1
    28    24    29   1
    29    25    26   1
    30    27    26   1
    31    27    28   1
    32    29    27   1
    33    29    30   1
    34    32    31   1
    35    31    39   1
    36    33    32   1
    37    33    34   1
    38    37    33   1
    39    35    34   1
    40    36    35   1
    41    35    43   1
    42    37    36   1
    43    37    38   1
    44    39    40  ar
    45    39    41  ar
    46    39    42  ar
    47    43    44   1
    48    43    45  am
    49    44    50   2
    50    45    46   2
    51    45    47  am
    52    47    48  am
    53    48    49   2
    54    48    50   1
    55    50    51   1
    56    16    52   1
    57    19    53   1
    58    19    54   1
    59    22    55   1
    60    23    56   1
    61    23    57   1
    62    24    58   1
    63    26    59   1
    64    27    60   1
    65    28    61   1
    66    29    62   1
    67    32    63   1
    68    32    64   1
    69    33    65   1
    70    35    66   1
    71    36    67   1
    72    36    68   1
    73    37    69   1
    74    44    70   1
    75    47    71   1
    76    51    72   1
    77    51    73   1
    78    51    74   1
@<TRIPOS>SUBSTRUCTURE
     1  PAX     14

