@<TRIPOS>MOLECULE
1u1b_ligand_073
    74    78
SMALL
GAST_HUCK
****
This file was generated by PARSER (from files_GN.cpp)

@<TRIPOS>ATOM
      1 PA        -33.5996  -35.5711   13.5633 P.3         1 PAX       0.2972
      2 O1A       -34.0529  -36.1520   12.3275 O.co2       1 PAX      -0.6127
      3 O2A       -33.9888  -34.1860   13.5939 O.co2       1 PAX      -0.6127
      4 O5        -34.3916  -36.2760   14.7062 O.3         1 PAX      -0.2476
      5 PB        -31.0139  -35.0136   13.0989 P.3         1 PAX       0.2974
      6 O1B       -30.8102  -35.5184   11.7627 O.co2       1 PAX      -0.6127
      7 O2B       -31.2819  -33.5998   12.9882 O.co2       1 PAX      -0.6127
      8 O3A       -32.0948  -35.8567   13.8313 O.3         1 PAX      -0.1319
      9 PG        -38.1245  -36.5722   15.5086 P.3         1 PAX       0.2013
     10 O1G       -37.3005  -37.6995   15.1516 O.co2       1 PAX      -0.5537
     11 O2G       -39.4431  -37.0717   15.7965 O.co2       1 PAX      -0.5537
     12 O3G       -38.2522  -35.6940   14.3731 O.co2       1 PAX      -0.5537
     13 N9A       -34.8930  -34.1832   19.9779 N.pl3       1 PAX      -0.1919
     14 C4A       -34.2604  -34.7382   21.0270 C.ar        1 PAX       0.1613
     15 N3A       -34.0876  -36.0342   21.3914 N.ar        1 PAX      -0.2714
     16 C2A       -33.4048  -36.3336   22.5282 C.ar        1 PAX       0.0533
     17 N1A       -32.9115  -35.3336   23.3164 N.ar        1 PAX      -0.2698
     18 C6A       -33.0426  -34.0250   22.9760 C.ar        1 PAX       0.1298
     19 N6A       -32.5402  -33.0682   23.7725 N.pl3       1 PAX      -0.3152
     20 C5A       -33.7379  -33.7049   21.8014 C.ar        1 PAX       0.1045
     21 N7A       -34.0388  -32.5415   21.2164 N.2         1 PAX      -0.2958
     22 C8A       -34.7486  -32.8437   20.1151 C.2         1 PAX       0.1123
     23 C5        -33.9551  -35.9930   16.0573 C.3         1 PAX       0.1131
     24 C4        -35.1540  -36.1511   17.0179 C.3         1 PAX       0.1235
     25 O4        -34.6965  -35.8684   18.3500 O.3         1 PAX      -0.3360
     26 C1        -35.5863  -34.9251   18.9596 C.3         1 PAX       0.2013
     27 C2        -36.1595  -34.1170   17.7788 C.3         1 PAX       0.1432
     28 O2        -37.3640  -33.4238   18.1045 O.3         1 PAX      -0.3832
     29 C3        -36.3192  -35.1750   16.6785 C.3         1 PAX       0.1487
     30 O3        -37.6215  -35.8011   16.7684 O.3         1 PAX      -0.2674
     31 O5        -30.1351  -32.9252   18.2720 O.3         1 PAX      -0.2734
     32 C5        -30.7252  -33.4191   17.0514 C.3         1 PAX       0.1074
     33 C4        -29.7312  -33.6456   15.8604 C.3         1 PAX       0.1209
     34 O4        -28.3961  -33.2784   16.2391 O.3         1 PAX      -0.3391
     35 C1        -27.4849  -34.3390   15.9535 C.3         1 PAX       0.1760
     36 C2        -28.3351  -35.6181   15.8391 C.3         1 PAX       0.0362
     37 C3        -29.6776  -35.1037   15.2994 C.3         1 PAX       0.1284
     38 O3        -29.6615  -35.2015   13.8512 O.3         1 PAX      -0.2441
     39 PD        -29.7066  -31.4317   18.3676 P.3         1 PAX       0.2008
     40 O1D       -30.0416  -30.5963   17.2401 O.co2       1 PAX      -0.5537
     41 O2D       -28.2753  -31.3814   18.5522 O.co2       1 PAX      -0.5537
     42 O3D       -30.2942  -30.8880   19.5635 O.co2       1 PAX      -0.5537
     43 N1T       -26.4257  -34.4084   16.9534 N.am        1 PAX      -0.1736
     44 C6T       -25.1110  -34.3679   16.5719 C.2         1 PAX       0.0524
     45 C2T       -26.6905  -34.4915   18.2738 C.2         1 PAX       0.3265
     46 O2T       -27.8220  -34.5455   18.7419 O.2         1 PAX      -0.3843
     47 N3T       -25.7098  -34.4801   19.1682 N.am        1 PAX      -0.1859
     48 C4T       -24.4343  -34.3831   18.8015 C.2         1 PAX       0.1930
     49 O4T       -23.6039  -34.3411   19.7005 O.2         1 PAX      -0.4079
     50 C5T       -24.0927  -34.3308   17.4680 C.2         1 PAX       0.0225
     51 CM5       -22.7129  -34.2462   16.9903 C.3         1 PAX      -0.0437
     52 H1        -33.2725  -37.3082   22.7997 H           1 PAX       0.0996
     53 H2        -32.6581  -32.1341   23.5417 H           1 PAX       0.1820
     54 H3        -32.0756  -33.3107   24.5866 H           1 PAX       0.1820
     55 H4        -35.1192  -32.1306   19.4856 H           1 PAX       0.1349
     56 H5        -33.5591  -34.9788   16.1889 H           1 PAX       0.0648
     57 H6        -33.1700  -36.7022   16.3384 H           1 PAX       0.0648
     58 H7        -35.4962  -37.1892   16.9955 H           1 PAX       0.0654
     59 H8        -36.4000  -35.4818   19.4382 H           1 PAX       0.0996
     60 H9        -35.4224  -33.3791   17.4455 H           1 PAX       0.0680
     61 H10       -37.9879  -34.1118   18.4181 H           1 PAX       0.2101
     62 H11       -36.1892  -34.6648   15.7152 H           1 PAX       0.0704
     63 H12       -31.5487  -32.7709   16.7384 H           1 PAX       0.0639
     64 H13       -31.1955  -34.3626   17.3376 H           1 PAX       0.0639
     65 H14       -30.0118  -32.9594   15.0605 H           1 PAX       0.0653
     66 H15       -27.0794  -34.1134   14.9600 H           1 PAX       0.0959
     67 H16       -28.4876  -36.0904   16.8137 H           1 PAX       0.0348
     68 H17       -27.8591  -36.3466   15.1783 H           1 PAX       0.0348
     69 H18       -30.4559  -35.7508   15.7178 H           1 PAX       0.0686
     70 H19       -24.8918  -34.3613   15.5978 H           1 PAX       0.1011
     71 H20       -25.9249  -34.5327   20.1144 H           1 PAX       0.2259
     72 H21       -22.4872  -35.1038   16.3518 H           1 PAX       0.0296
     73 H22       -21.9829  -34.2349   17.8007 H           1 PAX       0.0296
     74 H23       -22.5785  -33.3307   16.4084 H           1 PAX       0.0296
@<TRIPOS>BOND
     1     1     2  ar
     2     1     3  ar
     3     1     4   1
     4     8     1   1
     5     4    23   1
     6     5     6  ar
     7     5     7  ar
     8     5     8   1
     9    38     5   1
    10     9    10  ar
    11     9    11  ar
    12     9    12  ar
    13    30     9   1
    14    13    14   1
    15    13    22   1
    16    26    13   1
    17    14    15  ar
    18    14    20  ar
    19    15    16  ar
    20    16    17  ar
    21    18    17  ar
    22    18    19   1
    23    20    18  ar
    24    21    20   1
    25    22    21   2
    26    23    24   1
    27    24    25   1
    28    24    29   1
    29    25    26   1
    30    27    26   1
    31    27    28   1
    32    29    27   1
    33    29    30   1
    34    32    31   1
    35    31    39   1
    36    33    32   1
    37    33    34   1
    38    37    33   1
    39    35    34   1
    40    36    35   1
    41    35    43   1
    42    37    36   1
    43    37    38   1
    44    39    40  ar
    45    39    41  ar
    46    39    42  ar
    47    43    44   1
    48    43    45  am
    49    44    50   2
    50    45    46   2
    51    45    47  am
    52    47    48  am
    53    48    49   2
    54    48    50   1
    55    50    51   1
    56    16    52   1
    57    19    53   1
    58    19    54   1
    59    22    55   1
    60    23    56   1
    61    23    57   1
    62    24    58   1
    63    26    59   1
    64    27    60   1
    65    28    61   1
    66    29    62   1
    67    32    63   1
    68    32    64   1
    69    33    65   1
    70    35    66   1
    71    36    67   1
    72    36    68   1
    73    37    69   1
    74    44    70   1
    75    47    71   1
    76    51    72   1
    77    51    73   1
    78    51    74   1
@<TRIPOS>SUBSTRUCTURE
     1  PAX     14

