@<TRIPOS>MOLECULE
1u1b_ligand_004
    74    78
SMALL
GAST_HUCK
****
This file was generated by PARSER (from files_GN.cpp)

@<TRIPOS>ATOM
      1 PA        -22.2453  -34.7389   14.4208 P.3         1 PAX       0.2972
      2 O1A       -21.4898  -35.8970   14.0260 O.co2       1 PAX      -0.6127
      3 O2A       -22.1284  -33.7674   13.3734 O.co2       1 PAX      -0.6127
      4 O5        -23.7237  -35.2331   14.5200 O.3         1 PAX      -0.2476
      5 PB        -20.2706  -33.9113   15.9838 P.3         1 PAX       0.2974
      6 O1B       -19.6623  -33.1100   14.9493 O.co2       1 PAX      -0.6127
      7 O2B       -20.1509  -33.1765   17.2153 O.co2       1 PAX      -0.6127
      8 O3A       -21.8005  -34.1365   15.7898 O.3         1 PAX      -0.1319
      9 PG        -28.4750  -33.7468   16.5303 P.3         1 PAX       0.2013
     10 O1G       -27.2965  -32.9588   16.7649 O.co2       1 PAX      -0.5537
     11 O2G       -29.4395  -32.9053   15.8772 O.co2       1 PAX      -0.5537
     12 O3G       -29.0582  -34.1468   17.7830 O.co2       1 PAX      -0.5537
     13 N9A       -26.5591  -37.9267   12.6439 N.pl3       1 PAX      -0.1919
     14 C4A       -25.3924  -38.5856   12.7418 C.ar        1 PAX       0.1613
     15 N3A       -24.2823  -38.3445   13.4897 N.ar        1 PAX      -0.2714
     16 C2A       -23.2221  -39.1929   13.4210 C.ar        1 PAX       0.0533
     17 N1A       -23.2705  -40.2884   12.6162 N.ar        1 PAX      -0.2698
     18 C6A       -24.3571  -40.5661   11.8426 C.ar        1 PAX       0.1298
     19 N6A       -24.3672  -41.6614   11.0687 N.pl3       1 PAX      -0.3152
     20 C5A       -25.4545  -39.6882   11.8953 C.ar        1 PAX       0.1045
     21 N7A       -26.6442  -39.6812   11.2781 N.2         1 PAX      -0.2958
     22 C8A       -27.3026  -38.6020   11.7380 C.2         1 PAX       0.1123
     23 C5        -24.7558  -34.2465   14.7557 C.3         1 PAX       0.1131
     24 C4        -26.1460  -34.8142   14.3504 C.3         1 PAX       0.1235
     25 O4        -25.9827  -35.7139   13.2393 O.3         1 PAX      -0.3360
     26 C1        -26.9568  -36.7510   13.3685 C.3         1 PAX       0.2013
     27 C2        -27.0983  -36.9811   14.8849 C.3         1 PAX       0.1432
     28 O2        -28.3405  -37.6163   15.1925 O.3         1 PAX      -0.3832
     29 C3        -26.9483  -35.5593   15.4623 C.3         1 PAX       0.1487
     30 O3        -28.2746  -34.9996   15.6218 O.3         1 PAX      -0.2674
     31 O5        -15.5168  -35.4375   14.6616 O.3         1 PAX      -0.2734
     32 C5        -16.7475  -35.4951   13.9076 C.3         1 PAX       0.1074
     33 C4        -17.8354  -36.1818   14.7690 C.3         1 PAX       0.1209
     34 O4        -17.4135  -37.5166   15.1122 O.3         1 PAX      -0.3391
     35 C1        -17.7095  -37.7496   16.4981 C.3         1 PAX       0.1760
     36 C2        -17.6300  -36.3685   17.1692 C.3         1 PAX       0.0362
     37 C3        -18.1636  -35.4173   16.0830 C.3         1 PAX       0.1284
     38 O3        -19.5960  -35.2943   16.2384 O.3         1 PAX      -0.2441
     39 PD        -14.7135  -34.1037   14.6481 P.3         1 PAX       0.2008
     40 O1D       -14.2587  -33.7312   13.3395 O.co2       1 PAX      -0.5537
     41 O2D       -13.5760  -34.2750   15.5172 O.co2       1 PAX      -0.5537
     42 O3D       -15.5246  -33.0528   15.2018 O.co2       1 PAX      -0.5537
     43 N1T       -16.8211  -38.7265   17.1148 N.am        1 PAX      -0.1736
     44 C6T       -17.3308  -39.6706   17.9694 C.2         1 PAX       0.0524
     45 C2T       -15.4875  -38.7175   16.9013 C.2         1 PAX       0.3265
     46 O2T       -14.9187  -37.9128   16.1796 O.2         1 PAX      -0.3843
     47 N3T       -14.7090  -39.6223   17.4866 N.am        1 PAX      -0.1859
     48 C4T       -15.2039  -40.5468   18.3051 C.2         1 PAX       0.1930
     49 O4T       -14.4061  -41.3307   18.8000 O.2         1 PAX      -0.4079
     50 C5T       -16.5521  -40.5901   18.5801 C.2         1 PAX       0.0225
     51 CM5       -17.0925  -41.5731   19.5174 C.3         1 PAX      -0.0437
     52 H1        -22.3883  -39.0138   13.9809 H           1 PAX       0.0996
     53 H2        -25.1422  -41.8659   10.5214 H           1 PAX       0.1820
     54 H3        -23.6013  -42.2578   11.0617 H           1 PAX       0.1820
     55 H4        -28.2474  -38.3468   11.4415 H           1 PAX       0.1349
     56 H5        -24.5889  -33.3478   14.1537 H           1 PAX       0.0648
     57 H6        -24.7622  -33.9495   15.8060 H           1 PAX       0.0648
     58 H7        -26.7539  -33.9792   13.9882 H           1 PAX       0.0654
     59 H8        -27.9069  -36.3691   12.9756 H           1 PAX       0.0996
     60 H9        -26.2870  -37.6120   15.2608 H           1 PAX       0.0680
     61 H10       -28.3544  -37.7034   16.1668 H           1 PAX       0.2101
     62 H11       -26.4075  -35.6179   16.4158 H           1 PAX       0.0704
     63 H12       -16.5697  -36.0909   13.0092 H           1 PAX       0.0639
     64 H13       -17.1349  -34.5218   13.5900 H           1 PAX       0.0639
     65 H14       -18.7368  -36.2747   14.1562 H           1 PAX       0.0653
     66 H15       -18.7519  -38.0913   16.5307 H           1 PAX       0.0959
     67 H16       -16.5926  -36.1137   17.4085 H           1 PAX       0.0348
     68 H17       -18.2246  -36.3248   18.0837 H           1 PAX       0.0348
     69 H18       -17.6307  -34.4609   16.1692 H           1 PAX       0.0686
     70 H19       -18.3069  -39.6669   18.1648 H           1 PAX       0.1011
     71 H20       -13.7552  -39.6069   17.3134 H           1 PAX       0.2259
     72 H21       -18.1715  -41.4741   19.6652 H           1 PAX       0.0296
     73 H22       -16.6099  -41.4563   20.4903 H           1 PAX       0.0296
     74 H23       -16.8951  -42.5825   19.1498 H           1 PAX       0.0296
@<TRIPOS>BOND
     1     1     2  ar
     2     1     3  ar
     3     1     4   1
     4     8     1   1
     5     4    23   1
     6     5     6  ar
     7     5     7  ar
     8     5     8   1
     9    38     5   1
    10     9    10  ar
    11     9    11  ar
    12     9    12  ar
    13    30     9   1
    14    13    14   1
    15    13    22   1
    16    26    13   1
    17    14    15  ar
    18    14    20  ar
    19    15    16  ar
    20    16    17  ar
    21    18    17  ar
    22    18    19   1
    23    20    18  ar
    24    21    20   1
    25    22    21   2
    26    23    24   1
    27    24    25   1
    28    24    29   1
    29    25    26   1
    30    27    26   1
    31    27    28   1
    32    29    27   1
    33    29    30   1
    34    32    31   1
    35    31    39   1
    36    33    32   1
    37    33    34   1
    38    37    33   1
    39    35    34   1
    40    36    35   1
    41    35    43   1
    42    37    36   1
    43    37    38   1
    44    39    40  ar
    45    39    41  ar
    46    39    42  ar
    47    43    44   1
    48    43    45  am
    49    44    50   2
    50    45    46   2
    51    45    47  am
    52    47    48  am
    53    48    49   2
    54    48    50   1
    55    50    51   1
    56    16    52   1
    57    19    53   1
    58    19    54   1
    59    22    55   1
    60    23    56   1
    61    23    57   1
    62    24    58   1
    63    26    59   1
    64    27    60   1
    65    28    61   1
    66    29    62   1
    67    32    63   1
    68    32    64   1
    69    33    65   1
    70    35    66   1
    71    36    67   1
    72    36    68   1
    73    37    69   1
    74    44    70   1
    75    47    71   1
    76    51    72   1
    77    51    73   1
    78    51    74   1
@<TRIPOS>SUBSTRUCTURE
     1  PAX     14

