@<TRIPOS>MOLECULE
1u1b_ligand_049
    74    78
SMALL
GAST_HUCK
****
This file was generated by PARSER (from files_GN.cpp)

@<TRIPOS>ATOM
      1 PA        -21.4120  -34.8931   17.8423 P.3         1 PAX       0.2972
      2 O1A       -21.5700  -33.6991   18.6299 O.co2       1 PAX      -0.6127
      3 O2A       -21.2421  -35.9030   18.8579 O.co2       1 PAX      -0.6127
      4 O5        -22.7840  -35.2458   17.1883 O.3         1 PAX      -0.2476
      5 PB        -19.2946  -35.9418   16.5220 P.3         1 PAX       0.2974
      6 O1B       -18.8988  -36.7308   17.6605 O.co2       1 PAX      -0.6127
      7 O2B       -20.0364  -36.7624   15.5982 O.co2       1 PAX      -0.6127
      8 O3A       -20.1398  -34.6966   16.9457 O.3         1 PAX      -0.1319
      9 PG        -27.0916  -36.7726   15.1528 P.3         1 PAX       0.2013
     10 O1G       -28.4410  -37.2874   15.1160 O.co2       1 PAX      -0.5537
     11 O2G       -26.7636  -36.4432   13.7857 O.co2       1 PAX      -0.5537
     12 O3G       -26.2634  -37.8528   15.6365 O.co2       1 PAX      -0.5537
     13 N9A       -27.2076  -31.7620   18.2044 N.pl3       1 PAX      -0.1919
     14 C4A       -28.4698  -31.3041   18.2694 C.ar        1 PAX       0.1613
     15 N3A       -29.6400  -31.8908   17.9103 N.ar        1 PAX      -0.2714
     16 C2A       -30.8111  -31.2178   18.0627 C.ar        1 PAX       0.0533
     17 N1A       -30.8082  -29.9593   18.5812 N.ar        1 PAX      -0.2698
     18 C6A       -29.6591  -29.3245   18.9447 C.ar        1 PAX       0.1298
     19 N6A       -29.7524  -28.0797   19.4351 N.pl3       1 PAX      -0.3152
     20 C5A       -28.4400  -30.0151   18.8008 C.ar        1 PAX       0.1045
     21 N7A       -27.1611  -29.7174   19.0741 N.2         1 PAX      -0.2958
     22 C8A       -26.4258  -30.7878   18.7204 C.2         1 PAX       0.1123
     23 C5        -23.5982  -34.2223   16.5660 C.3         1 PAX       0.1131
     24 C4        -25.0848  -34.4541   17.0062 C.3         1 PAX       0.1235
     25 O4        -25.4541  -33.4274   17.9615 O.3         1 PAX      -0.3360
     26 C1        -26.8157  -33.0479   17.6989 C.3         1 PAX       0.2013
     27 C2        -26.8979  -33.1247   16.1604 C.3         1 PAX       0.1432
     28 O2        -28.2269  -33.1261   15.6356 O.3         1 PAX      -0.3832
     29 C3        -26.1608  -34.4453   15.8722 C.3         1 PAX       0.1487
     30 O3        -27.1338  -35.5099   16.0508 O.3         1 PAX      -0.2674
     31 O5        -16.0761  -39.3521   15.7291 O.3         1 PAX      -0.2734
     32 C5        -16.2007  -38.4486   16.8522 C.3         1 PAX       0.1074
     33 C4        -16.0863  -36.9285   16.5495 C.3         1 PAX       0.1209
     34 O4        -14.7245  -36.6157   16.2329 O.3         1 PAX      -0.3391
     35 C1        -14.7217  -35.4171   15.4503 C.3         1 PAX       0.1760
     36 C2        -15.9379  -35.6232   14.5221 C.3         1 PAX       0.0362
     37 C3        -16.9730  -36.3719   15.3942 C.3         1 PAX       0.1284
     38 O3        -17.9882  -35.4241   15.8307 O.3         1 PAX      -0.2441
     39 PD        -14.6720  -39.6550   15.1348 P.3         1 PAX       0.2008
     40 O1D       -14.2835  -38.6692   14.1588 O.co2       1 PAX      -0.5537
     41 O2D       -14.7796  -40.9037   14.4182 O.co2       1 PAX      -0.5537
     42 O3D       -13.6338  -39.8308   16.1224 O.co2       1 PAX      -0.5537
     43 N1T       -13.4633  -35.1086   14.7706 N.am        1 PAX      -0.1736
     44 C6T       -13.3401  -33.8857   14.1648 C.2         1 PAX       0.0524
     45 C2T       -12.3869  -35.9226   14.7622 C.2         1 PAX       0.3265
     46 O2T       -12.3430  -37.0243   15.2911 O.2         1 PAX      -0.3843
     47 N3T       -11.2516  -35.5371   14.1803 N.am        1 PAX      -0.1859
     48 C4T       -11.1268  -34.3472   13.6048 C.2         1 PAX       0.1930
     49 O4T       -10.0408  -34.0860   13.1082 O.2         1 PAX      -0.4079
     50 C5T       -12.1835  -33.4621   13.5978 C.2         1 PAX       0.0225
     51 CM5       -12.0901  -32.1084   13.0550 C.3         1 PAX      -0.0437
     52 H1        -31.6929  -31.6575   17.7996 H           1 PAX       0.0996
     53 H2        -28.9713  -27.5819   19.7199 H           1 PAX       0.1820
     54 H3        -30.6291  -27.6667   19.5119 H           1 PAX       0.1820
     55 H4        -25.4111  -30.8332   18.8187 H           1 PAX       0.1349
     56 H5        -23.4941  -34.3320   15.4797 H           1 PAX       0.0648
     57 H6        -23.2918  -33.1983   16.8354 H           1 PAX       0.0648
     58 H7        -25.1477  -35.4133   17.5306 H           1 PAX       0.0654
     59 H8        -27.4622  -33.8103   18.1554 H           1 PAX       0.0996
     60 H9        -26.3473  -32.2882   15.7122 H           1 PAX       0.0680
     61 H10       -28.5228  -32.1947   15.6819 H           1 PAX       0.2101
     62 H11       -25.7299  -34.4207   14.8599 H           1 PAX       0.0704
     63 H12       -15.4936  -38.7099   17.6454 H           1 PAX       0.0639
     64 H13       -17.1914  -38.6327   17.2618 H           1 PAX       0.0639
     65 H14       -16.3321  -36.3859   17.4665 H           1 PAX       0.0653
     66 H15       -14.9223  -34.5857   16.1355 H           1 PAX       0.0959
     67 H16       -15.6381  -36.2366   13.6675 H           1 PAX       0.0348
     68 H17       -16.3134  -34.6672   14.1492 H           1 PAX       0.0348
     69 H18       -17.4084  -37.1729   14.7880 H           1 PAX       0.0686
     70 H19       -14.1140  -33.2586   14.1709 H           1 PAX       0.1011
     71 H20       -10.4870  -36.1384   14.1866 H           1 PAX       0.2259
     72 H21       -12.8257  -31.9781   12.2553 H           1 PAX       0.0296
     73 H22       -11.1028  -31.8799   12.6418 H           1 PAX       0.0296
     74 H23       -12.2951  -31.3807   13.8462 H           1 PAX       0.0296
@<TRIPOS>BOND
     1     1     2  ar
     2     1     3  ar
     3     1     4   1
     4     8     1   1
     5     4    23   1
     6     5     6  ar
     7     5     7  ar
     8     5     8   1
     9    38     5   1
    10     9    10  ar
    11     9    11  ar
    12     9    12  ar
    13    30     9   1
    14    13    14   1
    15    13    22   1
    16    26    13   1
    17    14    15  ar
    18    14    20  ar
    19    15    16  ar
    20    16    17  ar
    21    18    17  ar
    22    18    19   1
    23    20    18  ar
    24    21    20   1
    25    22    21   2
    26    23    24   1
    27    24    25   1
    28    24    29   1
    29    25    26   1
    30    27    26   1
    31    27    28   1
    32    29    27   1
    33    29    30   1
    34    32    31   1
    35    31    39   1
    36    33    32   1
    37    33    34   1
    38    37    33   1
    39    35    34   1
    40    36    35   1
    41    35    43   1
    42    37    36   1
    43    37    38   1
    44    39    40  ar
    45    39    41  ar
    46    39    42  ar
    47    43    44   1
    48    43    45  am
    49    44    50   2
    50    45    46   2
    51    45    47  am
    52    47    48  am
    53    48    49   2
    54    48    50   1
    55    50    51   1
    56    16    52   1
    57    19    53   1
    58    19    54   1
    59    22    55   1
    60    23    56   1
    61    23    57   1
    62    24    58   1
    63    26    59   1
    64    27    60   1
    65    28    61   1
    66    29    62   1
    67    32    63   1
    68    32    64   1
    69    33    65   1
    70    35    66   1
    71    36    67   1
    72    36    68   1
    73    37    69   1
    74    44    70   1
    75    47    71   1
    76    51    72   1
    77    51    73   1
    78    51    74   1
@<TRIPOS>SUBSTRUCTURE
     1  PAX     14

