@<TRIPOS>MOLECULE
1u1b_ligand_055
    74    78
SMALL
GAST_HUCK
****
This file was generated by PARSER (from files_GN.cpp)

@<TRIPOS>ATOM
      1 PA        -30.8332  -29.8209   14.9169 P.3         1 PAX       0.2972
      2 O1A       -30.6937  -28.3931   15.0768 O.co2       1 PAX      -0.6127
      3 O2A       -30.2337  -30.1275   13.6416 O.co2       1 PAX      -0.6127
      4 O5        -30.1270  -30.5519   16.1071 O.3         1 PAX      -0.2476
      5 PB        -33.2410  -30.2210   16.0266 P.3         1 PAX       0.2974
      6 O1B       -32.7156  -29.7772   17.2994 O.co2       1 PAX      -0.6127
      7 O2B       -34.3828  -29.3833   15.7494 O.co2       1 PAX      -0.6127
      8 O3A       -32.3404  -30.1774   14.7552 O.3         1 PAX      -0.1319
      9 PG        -26.4718  -33.5514   17.5991 P.3         1 PAX       0.2013
     10 O1G       -26.4478  -33.0528   16.2443 O.co2       1 PAX      -0.5537
     11 O2G       -25.1110  -33.8479   17.9707 O.co2       1 PAX      -0.5537
     12 O3G       -27.1978  -34.7982   17.6524 O.co2       1 PAX      -0.5537
     13 N9A       -29.2164  -28.8910   20.3712 N.pl3       1 PAX      -0.1919
     14 C4A       -30.3046  -28.1788   20.0316 C.ar        1 PAX       0.1613
     15 N3A       -30.9664  -28.0352   18.8516 N.ar        1 PAX      -0.2714
     16 C2A       -32.0667  -27.2385   18.7848 C.ar        1 PAX       0.0533
     17 N1A       -32.5154  -26.5913   19.8947 N.ar        1 PAX      -0.2698
     18 C6A       -31.8880  -26.7055   21.0977 C.ar        1 PAX       0.1298
     19 N6A       -32.3704  -26.0402   22.1570 N.pl3       1 PAX      -0.3152
     20 C5A       -30.7461  -27.5198   21.1785 C.ar        1 PAX       0.1045
     21 N7A       -29.9310  -27.8325   22.1958 N.2         1 PAX      -0.2958
     22 C8A       -29.0039  -28.6684   21.6907 C.2         1 PAX       0.1123
     23 C5        -28.6815  -30.6439   16.0211 C.3         1 PAX       0.1131
     24 C4        -28.0442  -30.5974   17.4299 C.3         1 PAX       0.1235
     25 O4        -28.5711  -29.4648   18.1412 O.3         1 PAX      -0.3360
     26 C1        -28.4180  -29.7472   19.5365 C.3         1 PAX       0.2013
     27 C2        -28.8330  -31.2269   19.6300 C.3         1 PAX       0.1432
     28 O2        -28.3715  -31.8357   20.8383 O.3         1 PAX      -0.3832
     29 C3        -28.2708  -31.8499   18.3323 C.3         1 PAX       0.1487
     30 O3        -27.0299  -32.5366   18.6356 O.3         1 PAX      -0.2674
     31 O5        -32.3480  -35.4734   14.6556 O.3         1 PAX      -0.2734
     32 C5        -32.5523  -35.2003   16.0604 C.3         1 PAX       0.1074
     33 C4        -33.5954  -34.0917   16.4262 C.3         1 PAX       0.1209
     34 O4        -34.2894  -34.4867   17.6334 O.3         1 PAX      -0.3391
     35 C1        -34.2554  -33.3956   18.5742 C.3         1 PAX       0.1760
     36 C2        -32.9519  -32.6370   18.2278 C.3         1 PAX       0.0362
     37 C3        -32.9625  -32.6857   16.6838 C.3         1 PAX       0.1284
     38 O3        -33.8438  -31.6569   16.1429 O.3         1 PAX      -0.2441
     39 PD        -32.1215  -34.3015   13.6583 P.3         1 PAX       0.2008
     40 O1D       -31.7112  -34.8831   12.4049 O.co2       1 PAX      -0.5537
     41 O2D       -31.0814  -33.3765   14.0492 O.co2       1 PAX      -0.5537
     42 O3D       -33.3605  -33.6032   13.3955 O.co2       1 PAX      -0.5537
     43 N1T       -34.3069  -33.7689   19.9799 N.am        1 PAX      -0.1736
     44 C6T       -33.9175  -35.0098   20.3953 C.2         1 PAX       0.0524
     45 C2T       -34.7038  -32.8721   20.9083 C.2         1 PAX       0.3265
     46 O2T       -35.0605  -31.7341   20.6417 O.2         1 PAX      -0.3843
     47 N3T       -34.7006  -33.2004   22.1966 N.am        1 PAX      -0.1859
     48 C4T       -34.2974  -34.3974   22.6043 C.2         1 PAX       0.1930
     49 O4T       -34.2576  -34.5921   23.8108 O.2         1 PAX      -0.4079
     50 C5T       -33.8952  -35.3591   21.7049 C.2         1 PAX       0.0225
     51 CM5       -33.4725  -36.6881   22.1347 C.3         1 PAX      -0.0437
     52 H1        -32.5579  -27.1255   17.8982 H           1 PAX       0.0996
     53 H2        -31.8997  -26.0641   23.0053 H           1 PAX       0.1820
     54 H3        -33.1731  -25.5005   22.0631 H           1 PAX       0.1820
     55 H4        -28.2443  -29.0755   22.2410 H           1 PAX       0.1349
     56 H5        -28.2344  -29.8154   15.4498 H           1 PAX       0.0648
     57 H6        -28.4019  -31.5892   15.5357 H           1 PAX       0.0648
     58 H7        -26.9649  -30.4431   17.3156 H           1 PAX       0.0654
     59 H8        -27.3588  -29.6306   19.8096 H           1 PAX       0.0996
     60 H9        -29.9256  -31.2975   19.6197 H           1 PAX       0.0680
     61 H10       -27.4508  -31.5231   20.9594 H           1 PAX       0.2101
     62 H11       -29.0343  -32.5241   17.9215 H           1 PAX       0.0704
     63 H12       -31.5927  -35.0131   16.5571 H           1 PAX       0.0639
     64 H13       -32.9296  -36.1395   16.4646 H           1 PAX       0.0639
     65 H14       -34.3416  -34.0268   15.6268 H           1 PAX       0.0653
     66 H15       -35.1320  -32.7730   18.3393 H           1 PAX       0.0959
     67 H16       -32.0890  -33.1912   18.6316 H           1 PAX       0.0348
     68 H17       -32.9395  -31.6015   18.6143 H           1 PAX       0.0348
     69 H18       -31.9354  -32.6443   16.2855 H           1 PAX       0.0686
     70 H19       -33.6202  -35.6737   19.7133 H           1 PAX       0.1011
     71 H20       -34.9839  -32.5367   22.8413 H           1 PAX       0.2259
     72 H21       -33.1694  -37.3294   21.3020 H           1 PAX       0.0296
     73 H22       -34.2975  -37.1797   22.6523 H           1 PAX       0.0296
     74 H23       -32.6239  -36.6062   22.8166 H           1 PAX       0.0296
@<TRIPOS>BOND
     1     1     2  ar
     2     1     3  ar
     3     1     4   1
     4     8     1   1
     5     4    23   1
     6     5     6  ar
     7     5     7  ar
     8     5     8   1
     9    38     5   1
    10     9    10  ar
    11     9    11  ar
    12     9    12  ar
    13    30     9   1
    14    13    14   1
    15    13    22   1
    16    26    13   1
    17    14    15  ar
    18    14    20  ar
    19    15    16  ar
    20    16    17  ar
    21    18    17  ar
    22    18    19   1
    23    20    18  ar
    24    21    20   1
    25    22    21   2
    26    23    24   1
    27    24    25   1
    28    24    29   1
    29    25    26   1
    30    27    26   1
    31    27    28   1
    32    29    27   1
    33    29    30   1
    34    32    31   1
    35    31    39   1
    36    33    32   1
    37    33    34   1
    38    37    33   1
    39    35    34   1
    40    36    35   1
    41    35    43   1
    42    37    36   1
    43    37    38   1
    44    39    40  ar
    45    39    41  ar
    46    39    42  ar
    47    43    44   1
    48    43    45  am
    49    44    50   2
    50    45    46   2
    51    45    47  am
    52    47    48  am
    53    48    49   2
    54    48    50   1
    55    50    51   1
    56    16    52   1
    57    19    53   1
    58    19    54   1
    59    22    55   1
    60    23    56   1
    61    23    57   1
    62    24    58   1
    63    26    59   1
    64    27    60   1
    65    28    61   1
    66    29    62   1
    67    32    63   1
    68    32    64   1
    69    33    65   1
    70    35    66   1
    71    36    67   1
    72    36    68   1
    73    37    69   1
    74    44    70   1
    75    47    71   1
    76    51    72   1
    77    51    73   1
    78    51    74   1
@<TRIPOS>SUBSTRUCTURE
     1  PAX     14

