@<TRIPOS>MOLECULE
1u1b_ligand_009
    74    78
SMALL
GAST_HUCK
****
This file was generated by PARSER (from files_GN.cpp)

@<TRIPOS>ATOM
      1 PA        -30.2168  -28.0192   11.0077 P.3         1 PAX       0.2972
      2 O1A       -29.5754  -26.7641   10.6977 O.co2       1 PAX      -0.6127
      3 O2A       -31.5988  -27.6936   10.7332 O.co2       1 PAX      -0.6127
      4 O5        -29.7338  -29.0568    9.9424 O.3         1 PAX      -0.2476
      5 PB        -30.5917  -29.5296   13.2285 P.3         1 PAX       0.2974
      6 O1B       -31.7971  -30.0731   12.6503 O.co2       1 PAX      -0.6127
      7 O2B       -29.5684  -30.5432   13.2901 O.co2       1 PAX      -0.6127
      8 O3A       -30.0312  -28.2460   12.5415 O.3         1 PAX      -0.1319
      9 PG        -25.1084  -31.7282    9.4817 P.3         1 PAX       0.2013
     10 O1G       -26.1497  -31.6566    8.4852 O.co2       1 PAX      -0.5537
     11 O2G       -23.8606  -31.9033    8.7875 O.co2       1 PAX      -0.5537
     12 O3G       -25.2966  -32.9047   10.2973 O.co2       1 PAX      -0.5537
     13 N9A       -26.0605  -26.5316   12.3604 N.pl3       1 PAX      -0.1919
     14 C4A       -26.9360  -26.2760   13.3516 C.ar        1 PAX       0.1613
     15 N3A       -27.9417  -27.0196   13.8868 N.ar        1 PAX      -0.2714
     16 C2A       -28.7040  -26.5018   14.8883 C.ar        1 PAX       0.0533
     17 N1A       -28.4771  -25.2410   15.3452 N.ar        1 PAX      -0.2698
     18 C6A       -27.4903  -24.4584   14.8362 C.ar        1 PAX       0.1298
     19 N6A       -27.3168  -23.2055   15.2907 N.pl3       1 PAX      -0.3152
     20 C5A       -26.6818  -24.9886   13.8141 C.ar        1 PAX       0.1045
     21 N7A       -25.6499  -24.4775   13.1306 N.2         1 PAX      -0.2958
     22 C8A       -25.2783  -25.4318   12.2560 C.2         1 PAX       0.1123
     23 C5        -28.5889  -29.9021   10.2077 C.3         1 PAX       0.1131
     24 C4        -27.1744  -29.2435   10.2806 C.3         1 PAX       0.1235
     25 O4        -27.2161  -27.9129   10.8268 O.3         1 PAX      -0.3360
     26 C1        -25.9793  -27.6896   11.5084 C.3         1 PAX       0.2013
     27 C2        -25.7460  -29.0321   12.2225 C.3         1 PAX       0.1432
     28 O2        -24.4040  -29.1797   12.6838 O.3         1 PAX      -0.3832
     29 C3        -26.1503  -30.0572   11.1418 C.3         1 PAX       0.1487
     30 O3        -24.9854  -30.4502   10.3718 O.3         1 PAX      -0.2674
     31 O5        -32.6177  -32.0231   17.5375 O.3         1 PAX      -0.2734
     32 C5        -33.3066  -30.9159   16.9153 C.3         1 PAX       0.1074
     33 C4        -32.2991  -29.7754   16.6300 C.3         1 PAX       0.1209
     34 O4        -31.7344  -29.3844   17.8889 O.3         1 PAX      -0.3391
     35 C1        -30.3225  -29.1536   17.7445 C.3         1 PAX       0.1760
     36 C2        -29.9385  -30.1781   16.6530 C.3         1 PAX       0.0362
     37 C3        -31.1349  -30.1502   15.6821 C.3         1 PAX       0.1284
     38 O3        -30.9447  -29.1115   14.6887 O.3         1 PAX      -0.2441
     39 PD        -33.4719  -32.9551   18.4372 P.3         1 PAX       0.2008
     40 O1D       -33.8758  -32.2031   19.6017 O.co2       1 PAX      -0.5537
     41 O2D       -32.6519  -34.0343   18.9325 O.co2       1 PAX      -0.5537
     42 O3D       -34.6154  -33.5066   17.7548 O.co2       1 PAX      -0.5537
     43 N1T       -29.6824  -29.1636   19.0574 N.am        1 PAX      -0.1736
     44 C6T       -30.2176  -28.3621   20.0333 C.2         1 PAX       0.0524
     45 C2T       -28.5742  -29.8729   19.3701 C.2         1 PAX       0.3265
     46 O2T       -27.9469  -30.5698   18.5886 O.2         1 PAX      -0.3843
     47 N3T       -28.0716  -29.8271   20.6031 N.am        1 PAX      -0.1859
     48 C4T       -28.6287  -29.0876   21.5568 C.2         1 PAX       0.1930
     49 O4T       -28.0959  -29.1037   22.6612 O.2         1 PAX      -0.4079
     50 C5T       -29.7391  -28.3260   21.2979 C.2         1 PAX       0.0225
     51 CM5       -30.3666  -27.5201   22.3400 C.3         1 PAX      -0.0437
     52 H1        -29.4577  -27.0582   15.2831 H           1 PAX       0.0996
     53 H2        -26.6328  -22.6397   14.9005 H           1 PAX       0.1820
     54 H3        -27.8876  -22.8640   15.9966 H           1 PAX       0.1820
     55 H4        -24.5142  -25.3094   11.5869 H           1 PAX       0.1349
     56 H5        -28.5664  -30.6209    9.3840 H           1 PAX       0.0648
     57 H6        -28.7632  -30.4974   11.0974 H           1 PAX       0.0648
     58 H7        -26.8019  -29.1379    9.2509 H           1 PAX       0.0654
     59 H8        -25.1807  -27.5480   10.7649 H           1 PAX       0.0996
     60 H9        -26.4217  -29.1222   13.0838 H           1 PAX       0.0680
     61 H10       -24.2350  -28.3666   13.2082 H           1 PAX       0.2101
     62 H11       -26.5997  -30.9159   11.6581 H           1 PAX       0.0704
     63 H12       -34.0988  -30.4988   17.5455 H           1 PAX       0.0639
     64 H13       -33.7580  -31.2447   15.9740 H           1 PAX       0.0639
     65 H14       -32.8513  -28.9207   16.2254 H           1 PAX       0.0653
     66 H15       -30.1898  -28.1494   17.3294 H           1 PAX       0.0959
     67 H16       -29.8545  -31.1816   17.0828 H           1 PAX       0.0348
     68 H17       -28.9987  -29.9140   16.1582 H           1 PAX       0.0348
     69 H18       -31.2962  -31.1441   15.2476 H           1 PAX       0.0686
     70 H19       -31.0059  -27.7929   19.8101 H           1 PAX       0.1011
     71 H20       -27.2830  -30.3471   20.8143 H           1 PAX       0.2259
     72 H21       -31.2385  -26.9650   21.9874 H           1 PAX       0.0296
     73 H22       -29.6497  -26.8004   22.7369 H           1 PAX       0.0296
     74 H23       -30.6908  -28.1676   23.1535 H           1 PAX       0.0296
@<TRIPOS>BOND
     1     1     2  ar
     2     1     3  ar
     3     1     4   1
     4     8     1   1
     5     4    23   1
     6     5     6  ar
     7     5     7  ar
     8     5     8   1
     9    38     5   1
    10     9    10  ar
    11     9    11  ar
    12     9    12  ar
    13    30     9   1
    14    13    14   1
    15    13    22   1
    16    26    13   1
    17    14    15  ar
    18    14    20  ar
    19    15    16  ar
    20    16    17  ar
    21    18    17  ar
    22    18    19   1
    23    20    18  ar
    24    21    20   1
    25    22    21   2
    26    23    24   1
    27    24    25   1
    28    24    29   1
    29    25    26   1
    30    27    26   1
    31    27    28   1
    32    29    27   1
    33    29    30   1
    34    32    31   1
    35    31    39   1
    36    33    32   1
    37    33    34   1
    38    37    33   1
    39    35    34   1
    40    36    35   1
    41    35    43   1
    42    37    36   1
    43    37    38   1
    44    39    40  ar
    45    39    41  ar
    46    39    42  ar
    47    43    44   1
    48    43    45  am
    49    44    50   2
    50    45    46   2
    51    45    47  am
    52    47    48  am
    53    48    49   2
    54    48    50   1
    55    50    51   1
    56    16    52   1
    57    19    53   1
    58    19    54   1
    59    22    55   1
    60    23    56   1
    61    23    57   1
    62    24    58   1
    63    26    59   1
    64    27    60   1
    65    28    61   1
    66    29    62   1
    67    32    63   1
    68    32    64   1
    69    33    65   1
    70    35    66   1
    71    36    67   1
    72    36    68   1
    73    37    69   1
    74    44    70   1
    75    47    71   1
    76    51    72   1
    77    51    73   1
    78    51    74   1
@<TRIPOS>SUBSTRUCTURE
     1  PAX     14

