@<TRIPOS>MOLECULE
1u1b_ligand_012
    74    78
SMALL
GAST_HUCK
****
This file was generated by PARSER (from files_GN.cpp)

@<TRIPOS>ATOM
      1 PA        -30.7560  -32.3658   14.0740 P.3         1 PAX       0.2972
      2 O1A       -30.9852  -31.7951   15.3839 O.co2       1 PAX      -0.6127
      3 O2A       -29.4707  -31.9584   13.5473 O.co2       1 PAX      -0.6127
      4 O5        -30.7104  -33.9181   14.1937 O.3         1 PAX      -0.2476
      5 PB        -31.8530  -30.7344   12.2602 P.3         1 PAX       0.2974
      6 O1B       -30.9744  -30.9466   11.1289 O.co2       1 PAX      -0.6127
      7 O2B       -33.1395  -30.7354   11.6103 O.co2       1 PAX      -0.6127
      8 O3A       -31.9564  -32.0052   13.1550 O.3         1 PAX      -0.1319
      9 PG        -26.8257  -37.2406   14.5999 P.3         1 PAX       0.2013
     10 O1G       -26.2250  -37.3420   13.2902 O.co2       1 PAX      -0.5537
     11 O2G       -26.1709  -38.2138   15.4404 O.co2       1 PAX      -0.5537
     12 O3G       -28.2212  -37.6041   14.5107 O.co2       1 PAX      -0.5537
     13 N9A       -26.9385  -31.8837   17.5237 N.pl3       1 PAX      -0.1919
     14 C4A       -27.9867  -31.4719   18.2559 C.ar        1 PAX       0.1613
     15 N3A       -29.2935  -31.8372   18.2353 N.ar        1 PAX      -0.2714
     16 C2A       -30.1741  -31.2660   19.1005 C.ar        1 PAX       0.0533
     17 N1A       -29.7391  -30.3418   20.0011 N.ar        1 PAX      -0.2698
     18 C6A       -28.4411  -29.9346   20.0587 C.ar        1 PAX       0.1298
     19 N6A       -28.0692  -29.0276   20.9801 N.pl3       1 PAX      -0.3152
     20 C5A       -27.5281  -30.5104   19.1567 C.ar        1 PAX       0.1045
     21 N7A       -26.2140  -30.3434   18.9589 N.2         1 PAX      -0.2958
     22 C8A       -25.8697  -31.1880   17.9662 C.2         1 PAX       0.1123
     23 C5        -29.9089  -34.5424   15.2277 C.3         1 PAX       0.1131
     24 C4        -28.3791  -34.2298   15.2331 C.3         1 PAX       0.1235
     25 O4        -28.1753  -32.9265   15.7985 O.3         1 PAX      -0.3360
     26 C1        -26.9364  -32.9028   16.5071 C.3         1 PAX       0.2013
     27 C2        -26.8044  -34.3185   17.0913 C.3         1 PAX       0.1432
     28 O2        -25.4404  -34.6574   17.3428 O.3         1 PAX      -0.3832
     29 C3        -27.4969  -35.2214   16.0479 C.3         1 PAX       0.1487
     30 O3        -26.5136  -35.8335   15.1775 O.3         1 PAX      -0.2674
     31 O5        -30.9171  -27.8986   16.5662 O.3         1 PAX      -0.2734
     32 C5        -30.5127  -26.9963   15.5115 C.3         1 PAX       0.1074
     33 C4        -30.9472  -27.3768   14.0652 C.3         1 PAX       0.1209
     34 O4        -30.2111  -26.5653   13.1317 O.3         1 PAX      -0.3391
     35 C1        -29.3048  -27.3778   12.3596 C.3         1 PAX       0.1760
     36 C2        -29.3182  -28.7679   13.0285 C.3         1 PAX       0.0362
     37 C3        -30.7079  -28.8536   13.6716 C.3         1 PAX       0.1284
     38 O3        -31.7845  -29.2765   12.8056 O.3         1 PAX      -0.2441
     39 PD        -32.4289  -28.0480   16.9067 P.3         1 PAX       0.2008
     40 O1D       -33.1335  -28.8128   15.9061 O.co2       1 PAX      -0.5537
     41 O2D       -33.0940  -26.7820   17.1205 O.co2       1 PAX      -0.5537
     42 O3D       -32.5136  -28.7946   18.1331 O.co2       1 PAX      -0.5537
     43 N1T       -27.9516  -26.8540   12.1954 N.am        1 PAX      -0.1736
     44 C6T       -27.5498  -25.7128   12.8320 C.2         1 PAX       0.0524
     45 C2T       -27.0519  -27.4955   11.4214 C.2         1 PAX       0.3265
     46 O2T       -27.3030  -28.5153   10.7923 O.2         1 PAX      -0.3843
     47 N3T       -25.8139  -27.0276   11.2954 N.am        1 PAX      -0.1859
     48 C4T       -25.4280  -25.9095   11.8977 C.2         1 PAX       0.1930
     49 O4T       -24.2817  -25.5357   11.6857 O.2         1 PAX      -0.4079
     50 C5T       -26.2993  -25.2101   12.6995 C.2         1 PAX       0.0225
     51 CM5       -25.8893  -23.9729   13.3585 C.3         1 PAX      -0.0437
     52 H1        -31.1564  -31.5395   19.0871 H           1 PAX       0.0996
     53 H2        -27.1427  -28.7498   21.0654 H           1 PAX       0.1820
     54 H3        -28.7315  -28.6698   21.5931 H           1 PAX       0.1820
     55 H4        -24.9168  -31.2895   17.6123 H           1 PAX       0.1349
     56 H5        -30.0367  -35.6164   15.0699 H           1 PAX       0.0648
     57 H6        -30.3328  -34.3132   16.2110 H           1 PAX       0.0648
     58 H7        -28.0332  -34.1979   14.1955 H           1 PAX       0.0654
     59 H8        -26.1341  -32.7178   15.7853 H           1 PAX       0.0996
     60 H9        -27.3492  -34.3809   18.0388 H           1 PAX       0.0680
     61 H10       -25.4554  -35.5848   17.6634 H           1 PAX       0.2101
     62 H11       -28.0954  -35.9606   16.5984 H           1 PAX       0.0704
     63 H12       -29.4216  -26.9800   15.5514 H           1 PAX       0.0639
     64 H13       -30.8490  -25.9786   15.7348 H           1 PAX       0.0639
     65 H14       -32.0068  -27.1302   13.9645 H           1 PAX       0.0653
     66 H15       -29.7654  -27.4551   11.3683 H           1 PAX       0.0959
     67 H16       -28.5494  -28.8238   13.8069 H           1 PAX       0.0348
     68 H17       -29.1343  -29.5661   12.3079 H           1 PAX       0.0348
     69 H18       -30.6800  -29.4748   14.5624 H           1 PAX       0.0686
     70 H19       -28.1910  -25.2201   13.4091 H           1 PAX       0.1011
     71 H20       -25.1795  -27.5083   10.7400 H           1 PAX       0.2259
     72 H21       -26.6734  -23.5479   13.9920 H           1 PAX       0.0296
     73 H22       -25.6315  -23.2273   12.6018 H           1 PAX       0.0296
     74 H23       -25.0147  -24.1569   13.9893 H           1 PAX       0.0296
@<TRIPOS>BOND
     1     1     2  ar
     2     1     3  ar
     3     1     4   1
     4     8     1   1
     5     4    23   1
     6     5     6  ar
     7     5     7  ar
     8     5     8   1
     9    38     5   1
    10     9    10  ar
    11     9    11  ar
    12     9    12  ar
    13    30     9   1
    14    13    14   1
    15    13    22   1
    16    26    13   1
    17    14    15  ar
    18    14    20  ar
    19    15    16  ar
    20    16    17  ar
    21    18    17  ar
    22    18    19   1
    23    20    18  ar
    24    21    20   1
    25    22    21   2
    26    23    24   1
    27    24    25   1
    28    24    29   1
    29    25    26   1
    30    27    26   1
    31    27    28   1
    32    29    27   1
    33    29    30   1
    34    32    31   1
    35    31    39   1
    36    33    32   1
    37    33    34   1
    38    37    33   1
    39    35    34   1
    40    36    35   1
    41    35    43   1
    42    37    36   1
    43    37    38   1
    44    39    40  ar
    45    39    41  ar
    46    39    42  ar
    47    43    44   1
    48    43    45  am
    49    44    50   2
    50    45    46   2
    51    45    47  am
    52    47    48  am
    53    48    49   2
    54    48    50   1
    55    50    51   1
    56    16    52   1
    57    19    53   1
    58    19    54   1
    59    22    55   1
    60    23    56   1
    61    23    57   1
    62    24    58   1
    63    26    59   1
    64    27    60   1
    65    28    61   1
    66    29    62   1
    67    32    63   1
    68    32    64   1
    69    33    65   1
    70    35    66   1
    71    36    67   1
    72    36    68   1
    73    37    69   1
    74    44    70   1
    75    47    71   1
    76    51    72   1
    77    51    73   1
    78    51    74   1
@<TRIPOS>SUBSTRUCTURE
     1  PAX     14

