@<TRIPOS>MOLECULE
1u1b_ligand_017
    74    78
SMALL
GAST_HUCK
****
This file was generated by PARSER (from files_GN.cpp)

@<TRIPOS>ATOM
      1 PA        -33.7348  -30.5904   17.2457 P.3         1 PAX       0.2972
      2 O1A       -33.3700  -29.5372   18.1570 O.co2       1 PAX      -0.6127
      3 O2A       -34.1847  -29.8822   16.0725 O.co2       1 PAX      -0.6127
      4 O5        -32.4957  -31.4903   16.8832 O.3         1 PAX      -0.2476
      5 PB        -35.7178  -32.3681   17.1556 P.3         1 PAX       0.2974
      6 O1B       -36.7073  -32.8355   18.0880 O.co2       1 PAX      -0.6127
      7 O2B       -36.4726  -31.6768   16.1286 O.co2       1 PAX      -0.6127
      8 O3A       -34.8872  -31.3449   17.9883 O.3         1 PAX      -0.1319
      9 PG        -27.6086  -32.4747   18.3060 P.3         1 PAX       0.2013
     10 O1G       -27.3521  -32.5857   16.8889 O.co2       1 PAX      -0.5537
     11 O2G       -26.3841  -32.8357   18.9760 O.co2       1 PAX      -0.5537
     12 O3G       -28.6161  -33.4448   18.6697 O.co2       1 PAX      -0.5537
     13 N9A       -30.3676  -27.1253   18.2316 N.pl3       1 PAX      -0.1919
     14 C4A       -30.0595  -26.0277   17.5197 C.ar        1 PAX       0.1613
     15 N3A       -29.1496  -25.8211   16.5307 N.ar        1 PAX      -0.2714
     16 C2A       -29.0479  -24.6003   15.9380 C.ar        1 PAX       0.0533
     17 N1A       -29.8638  -23.5810   16.3312 N.ar        1 PAX      -0.2698
     18 C6A       -30.7957  -23.7378   17.3106 C.ar        1 PAX       0.1298
     19 N6A       -31.5719  -22.6982   17.6567 N.pl3       1 PAX      -0.3152
     20 C5A       -30.9093  -24.9963   17.9230 C.ar        1 PAX       0.1045
     21 N7A       -31.7278  -25.4750   18.8702 N.2         1 PAX      -0.2958
     22 C8A       -31.3925  -26.7676   19.0412 C.2         1 PAX       0.1123
     23 C5        -31.4543  -31.6765   17.8754 C.3         1 PAX       0.1131
     24 C4        -30.2750  -30.6677   17.7320 C.3         1 PAX       0.1235
     25 O4        -30.7500  -29.3287   17.5261 O.3         1 PAX      -0.3360
     26 C1        -29.7881  -28.4364   18.0871 C.3         1 PAX       0.2013
     27 C2        -29.3528  -29.1470   19.3854 C.3         1 PAX       0.1432
     28 O2        -28.1196  -28.6357   19.8898 O.3         1 PAX      -0.3832
     29 C3        -29.3068  -30.6293   18.9577 C.3         1 PAX       0.1487
     30 O3        -27.9369  -30.9975   18.6653 O.3         1 PAX      -0.2674
     31 O5        -33.7857  -37.4109   18.3892 O.3         1 PAX      -0.2734
     32 C5        -33.0435  -36.5017   17.5348 C.3         1 PAX       0.1074
     33 C4        -33.9040  -35.7738   16.4642 C.3         1 PAX       0.1209
     34 O4        -34.4885  -36.7596   15.6038 O.3         1 PAX      -0.3391
     35 C1        -35.8182  -36.3411   15.2636 C.3         1 PAX       0.1760
     36 C2        -36.3194  -35.5563   16.4941 C.3         1 PAX       0.0362
     37 C3        -35.0375  -34.8704   17.0159 C.3         1 PAX       0.1284
     38 O3        -34.8412  -33.5159   16.5503 O.3         1 PAX      -0.2441
     39 PD        -34.0146  -37.0733   19.8982 P.3         1 PAX       0.2008
     40 O1D       -33.1225  -36.0696   20.4285 O.co2       1 PAX      -0.5537
     41 O2D       -33.7931  -38.2770   20.6669 O.co2       1 PAX      -0.5537
     42 O3D       -35.3745  -36.6783   20.1549 O.co2       1 PAX      -0.5537
     43 N1T       -36.6359  -37.4917   14.8929 N.am        1 PAX      -0.1736
     44 C6T       -36.5630  -38.6440   15.6355 C.2         1 PAX       0.0524
     45 C2T       -37.4302  -37.5015   13.7991 C.2         1 PAX       0.3265
     46 O2T       -37.5746  -36.5354   13.0594 O.2         1 PAX      -0.3843
     47 N3T       -38.1049  -38.5964   13.4653 N.am        1 PAX      -0.1859
     48 C4T       -38.0367  -39.7116   14.1897 C.2         1 PAX       0.1930
     49 O4T       -38.6924  -40.6666   13.8033 O.2         1 PAX      -0.4079
     50 C5T       -37.2447  -39.7658   15.3119 C.2         1 PAX       0.0225
     51 CM5       -37.1505  -40.9857   16.1131 C.3         1 PAX      -0.0437
     52 H1        -28.3652  -24.4482   15.1951 H           1 PAX       0.0996
     53 H2        -32.2404  -22.7998   18.3518 H           1 PAX       0.1820
     54 H3        -31.4405  -21.8332   17.2357 H           1 PAX       0.1820
     55 H4        -31.8754  -27.3846   19.6937 H           1 PAX       0.1349
     56 H5        -31.0536  -32.6778   17.7037 H           1 PAX       0.0648
     57 H6        -31.8553  -31.6683   18.8953 H           1 PAX       0.0648
     58 H7        -29.7123  -30.9258   16.8305 H           1 PAX       0.0654
     59 H8        -28.9240  -28.3833   17.4124 H           1 PAX       0.0996
     60 H9        -30.1148  -29.0281   20.1612 H           1 PAX       0.0680
     61 H10       -28.3312  -27.7319   20.2095 H           1 PAX       0.2101
     62 H11       -29.6755  -31.2326   19.7956 H           1 PAX       0.0704
     63 H12       -32.3305  -37.1349   17.0001 H           1 PAX       0.0639
     64 H13       -32.4501  -35.7609   18.0816 H           1 PAX       0.0639
     65 H14       -33.2204  -35.1782   15.8486 H           1 PAX       0.0653
     66 H15       -35.7334  -35.6234   14.4345 H           1 PAX       0.0959
     67 H16       -36.7013  -36.2389   17.2592 H           1 PAX       0.0348
     68 H17       -37.0965  -34.8399   16.2243 H           1 PAX       0.0348
     69 H18       -35.0190  -34.8679   18.1019 H           1 PAX       0.0686
     70 H19       -35.9642  -38.6653   16.4306 H           1 PAX       0.1011
     71 H20       -38.6700  -38.5848   12.6748 H           1 PAX       0.2259
     72 H21       -36.5091  -40.8668   16.9875 H           1 PAX       0.0296
     73 H22       -36.7428  -41.7925   15.5017 H           1 PAX       0.0296
     74 H23       -38.1431  -41.2746   16.4640 H           1 PAX       0.0296
@<TRIPOS>BOND
     1     1     2  ar
     2     1     3  ar
     3     1     4   1
     4     8     1   1
     5     4    23   1
     6     5     6  ar
     7     5     7  ar
     8     5     8   1
     9    38     5   1
    10     9    10  ar
    11     9    11  ar
    12     9    12  ar
    13    30     9   1
    14    13    14   1
    15    13    22   1
    16    26    13   1
    17    14    15  ar
    18    14    20  ar
    19    15    16  ar
    20    16    17  ar
    21    18    17  ar
    22    18    19   1
    23    20    18  ar
    24    21    20   1
    25    22    21   2
    26    23    24   1
    27    24    25   1
    28    24    29   1
    29    25    26   1
    30    27    26   1
    31    27    28   1
    32    29    27   1
    33    29    30   1
    34    32    31   1
    35    31    39   1
    36    33    32   1
    37    33    34   1
    38    37    33   1
    39    35    34   1
    40    36    35   1
    41    35    43   1
    42    37    36   1
    43    37    38   1
    44    39    40  ar
    45    39    41  ar
    46    39    42  ar
    47    43    44   1
    48    43    45  am
    49    44    50   2
    50    45    46   2
    51    45    47  am
    52    47    48  am
    53    48    49   2
    54    48    50   1
    55    50    51   1
    56    16    52   1
    57    19    53   1
    58    19    54   1
    59    22    55   1
    60    23    56   1
    61    23    57   1
    62    24    58   1
    63    26    59   1
    64    27    60   1
    65    28    61   1
    66    29    62   1
    67    32    63   1
    68    32    64   1
    69    33    65   1
    70    35    66   1
    71    36    67   1
    72    36    68   1
    73    37    69   1
    74    44    70   1
    75    47    71   1
    76    51    72   1
    77    51    73   1
    78    51    74   1
@<TRIPOS>SUBSTRUCTURE
     1  PAX     14

