@<TRIPOS>MOLECULE
1u1b_ligand_093
    74    78
SMALL
GAST_HUCK
****
This file was generated by PARSER (from files_GN.cpp)

@<TRIPOS>ATOM
      1 PA        -30.0552  -32.7548   11.5636 P.3         1 PAX       0.2972
      2 O1A       -30.8983  -32.7873   10.3923 O.co2       1 PAX      -0.6127
      3 O2A       -29.5262  -34.0792   11.7915 O.co2       1 PAX      -0.6127
      4 O5        -28.8081  -31.8820   11.2396 O.3         1 PAX      -0.2476
      5 PB        -31.8499  -33.0280   13.5316 P.3         1 PAX       0.2974
      6 O1B       -32.7207  -32.0988   14.2044 O.co2       1 PAX      -0.6127
      7 O2B       -32.7327  -33.8053   12.6992 O.co2       1 PAX      -0.6127
      8 O3A       -30.8167  -32.1452   12.7749 O.3         1 PAX      -0.1319
      9 PG        -25.4041  -31.9482    9.6707 P.3         1 PAX       0.2013
     10 O1G       -26.5964  -32.1308    8.8858 O.co2       1 PAX      -0.5537
     11 O2G       -24.2856  -31.9898    8.7629 O.co2       1 PAX      -0.5537
     12 O3G       -25.2534  -33.0410   10.5927 O.co2       1 PAX      -0.5537
     13 N9A       -26.5649  -26.7835   12.4602 N.pl3       1 PAX      -0.1919
     14 C4A       -27.4095  -26.6141   13.4947 C.ar        1 PAX       0.1613
     15 N3A       -28.3656  -27.4247   14.0170 N.ar        1 PAX      -0.2714
     16 C2A       -29.1058  -27.0021   15.0779 C.ar        1 PAX       0.0533
     17 N1A       -28.8924  -25.7676   15.6144 N.ar        1 PAX      -0.2698
     18 C6A       -27.9482  -24.9221   15.1221 C.ar        1 PAX       0.1298
     19 N6A       -27.7772  -23.7117   15.6757 N.pl3       1 PAX      -0.3152
     20 C5A       -27.1749  -25.3487   14.0273 C.ar        1 PAX       0.1045
     21 N7A       -26.1947  -24.7664   13.3236 N.2         1 PAX      -0.2958
     22 C8A       -25.8334  -25.6499   12.3743 C.2         1 PAX       0.1123
     23 C5        -28.9618  -30.4516   11.3337 C.3         1 PAX       0.1131
     24 C4        -27.6796  -29.7518   10.8224 C.3         1 PAX       0.1235
     25 O4        -27.7484  -28.3493   11.1346 O.3         1 PAX      -0.3360
     26 C1        -26.4611  -27.9355   11.6090 C.3         1 PAX       0.2013
     27 C2        -25.8887  -29.1698   12.3244 C.3         1 PAX       0.1432
     28 O2        -24.4708  -29.1195   12.4889 O.3         1 PAX      -0.3832
     29 C3        -26.3568  -30.3201   11.4211 C.3         1 PAX       0.1487
     30 O3        -25.3535  -30.5709   10.4057 O.3         1 PAX      -0.2674
     31 O5        -28.0320  -35.9781   15.0883 O.3         1 PAX      -0.2734
     32 C5        -28.1774  -35.1796   16.2827 C.3         1 PAX       0.1074
     33 C4        -29.6211  -34.6110   16.3260 C.3         1 PAX       0.1209
     34 O4        -29.8264  -33.9661   17.5951 O.3         1 PAX      -0.3391
     35 C1        -30.2415  -32.5988   17.4195 C.3         1 PAX       0.1760
     36 C2        -29.8216  -32.2493   15.9759 C.3         1 PAX       0.0362
     37 C3        -29.9384  -33.5812   15.2064 C.3         1 PAX       0.1284
     38 O3        -31.2439  -33.9093   14.6635 O.3         1 PAX      -0.2441
     39 PD        -26.7160  -36.8069   14.9615 P.3         1 PAX       0.2008
     40 O1D       -26.7539  -37.4910   13.6972 O.co2       1 PAX      -0.5537
     41 O2D       -26.6358  -37.8324   15.9670 O.co2       1 PAX      -0.5537
     42 O3D       -25.5306  -35.9847   14.9921 O.co2       1 PAX      -0.5537
     43 N1T       -29.7393  -31.6387   18.4048 N.am        1 PAX      -0.1736
     44 C6T       -30.1626  -30.3376   18.3238 C.2         1 PAX       0.0524
     45 C2T       -28.8717  -31.9591   19.3910 C.2         1 PAX       0.3265
     46 O2T       -28.4192  -33.0773   19.5767 O.2         1 PAX      -0.3843
     47 N3T       -28.4356  -31.0203   20.2242 N.am        1 PAX      -0.1859
     48 C4T       -28.8432  -29.7609   20.1444 C.2         1 PAX       0.1930
     49 O4T       -28.4065  -28.9925   20.9858 O.2         1 PAX      -0.4079
     50 C5T       -29.7239  -29.3725   19.1638 C.2         1 PAX       0.0225
     51 CM5       -30.1738  -27.9950   18.9914 C.3         1 PAX      -0.0437
     52 H1        -29.8248  -27.6099   15.4669 H           1 PAX       0.0996
     53 H2        -27.1075  -23.1063   15.3204 H           1 PAX       0.1820
     54 H3        -28.3251  -23.4390   16.4297 H           1 PAX       0.1820
     55 H4        -25.0970  -25.4741   11.6872 H           1 PAX       0.1349
     56 H5        -29.1229  -30.1503   12.3702 H           1 PAX       0.0648
     57 H6        -29.8067  -30.1137   10.7264 H           1 PAX       0.0648
     58 H7        -27.6633  -29.8391    9.7318 H           1 PAX       0.0654
     59 H8        -25.8292  -27.7075   10.7430 H           1 PAX       0.0996
     60 H9        -26.3434  -29.2812   13.3114 H           1 PAX       0.0680
     61 H10       -24.2954  -28.3558   13.0798 H           1 PAX       0.2101
     62 H11       -26.5072  -31.1975   12.0590 H           1 PAX       0.0704
     63 H12       -27.4502  -34.3573   16.2738 H           1 PAX       0.0639
     64 H13       -28.0272  -35.7710   17.1956 H           1 PAX       0.0639
     65 H14       -30.3144  -35.4603   16.2811 H           1 PAX       0.0653
     66 H15       -31.3394  -32.6032   17.4698 H           1 PAX       0.0959
     67 H16       -28.7818  -31.9133   15.9606 H           1 PAX       0.0348
     68 H17       -30.4427  -31.4590   15.5536 H           1 PAX       0.0348
     69 H18       -29.1877  -33.6247   14.4035 H           1 PAX       0.0686
     70 H19       -30.8148  -30.0819   17.6144 H           1 PAX       0.1011
     71 H20       -27.7992  -31.2656   20.9134 H           1 PAX       0.2259
     72 H21       -29.8462  -27.6173   18.0222 H           1 PAX       0.0296
     73 H22       -29.7787  -27.3238   19.7508 H           1 PAX       0.0296
     74 H23       -31.2631  -27.9428   19.0367 H           1 PAX       0.0296
@<TRIPOS>BOND
     1     1     2  ar
     2     1     3  ar
     3     1     4   1
     4     8     1   1
     5     4    23   1
     6     5     6  ar
     7     5     7  ar
     8     5     8   1
     9    38     5   1
    10     9    10  ar
    11     9    11  ar
    12     9    12  ar
    13    30     9   1
    14    13    14   1
    15    13    22   1
    16    26    13   1
    17    14    15  ar
    18    14    20  ar
    19    15    16  ar
    20    16    17  ar
    21    18    17  ar
    22    18    19   1
    23    20    18  ar
    24    21    20   1
    25    22    21   2
    26    23    24   1
    27    24    25   1
    28    24    29   1
    29    25    26   1
    30    27    26   1
    31    27    28   1
    32    29    27   1
    33    29    30   1
    34    32    31   1
    35    31    39   1
    36    33    32   1
    37    33    34   1
    38    37    33   1
    39    35    34   1
    40    36    35   1
    41    35    43   1
    42    37    36   1
    43    37    38   1
    44    39    40  ar
    45    39    41  ar
    46    39    42  ar
    47    43    44   1
    48    43    45  am
    49    44    50   2
    50    45    46   2
    51    45    47  am
    52    47    48  am
    53    48    49   2
    54    48    50   1
    55    50    51   1
    56    16    52   1
    57    19    53   1
    58    19    54   1
    59    22    55   1
    60    23    56   1
    61    23    57   1
    62    24    58   1
    63    26    59   1
    64    27    60   1
    65    28    61   1
    66    29    62   1
    67    32    63   1
    68    32    64   1
    69    33    65   1
    70    35    66   1
    71    36    67   1
    72    36    68   1
    73    37    69   1
    74    44    70   1
    75    47    71   1
    76    51    72   1
    77    51    73   1
    78    51    74   1
@<TRIPOS>SUBSTRUCTURE
     1  PAX     14

