@<TRIPOS>MOLECULE
1u1b_ligand_032
    74    78
SMALL
GAST_HUCK
****
This file was generated by PARSER (from files_GN.cpp)

@<TRIPOS>ATOM
      1 PA        -31.7239  -33.9687   14.5975 P.3         1 PAX       0.2972
      2 O1A       -31.2205  -32.7369   15.1456 O.co2       1 PAX      -0.6127
      3 O2A       -31.2984  -34.0235   13.2189 O.co2       1 PAX      -0.6127
      4 O5        -31.2286  -35.2529   15.3378 O.3         1 PAX      -0.2476
      5 PB        -34.1046  -35.1413   14.3065 P.3         1 PAX       0.2974
      6 O1B       -34.3748  -35.1428   12.8836 O.co2       1 PAX      -0.6127
      7 O2B       -33.4672  -36.3861   14.6685 O.co2       1 PAX      -0.6127
      8 O3A       -33.2770  -33.8799   14.7005 O.3         1 PAX      -0.1319
      9 PG        -26.8753  -37.1726   14.5473 P.3         1 PAX       0.2013
     10 O1G       -26.1536  -38.1687   15.2956 O.co2       1 PAX      -0.5537
     11 O2G       -28.2514  -37.5974   14.4555 O.co2       1 PAX      -0.5537
     12 O3G       -26.2965  -37.1304   13.2285 O.co2       1 PAX      -0.5537
     13 N9A       -27.2110  -31.9443   17.4596 N.pl3       1 PAX      -0.1919
     14 C4A       -28.1992  -31.1195   17.8498 C.ar        1 PAX       0.1613
     15 N3A       -29.5142  -31.0598   17.5097 N.ar        1 PAX      -0.2714
     16 C2A       -30.3107  -30.0987   18.0440 C.ar        1 PAX       0.0533
     17 N1A       -29.7990  -29.1996   18.9330 N.ar        1 PAX      -0.2698
     18 C6A       -28.4914  -29.2230   19.3090 C.ar        1 PAX       0.1298
     19 N6A       -28.0314  -28.3343   20.2011 N.pl3       1 PAX      -0.3152
     20 C5A       -27.6557  -30.2019   18.7455 C.ar        1 PAX       0.1045
     21 N7A       -26.3453  -30.4525   18.8761 N.2         1 PAX      -0.2958
     22 C8A       -26.0926  -31.5168   18.0917 C.2         1 PAX       0.1123
     23 C5        -30.1828  -35.1632   16.3226 C.3         1 PAX       0.1131
     24 C4        -28.8110  -34.6814   15.7525 C.3         1 PAX       0.1235
     25 O4        -28.6234  -33.2813   16.0416 O.3         1 PAX      -0.3360
     26 C1        -27.3001  -33.0697   16.5601 C.3         1 PAX       0.2013
     27 C2        -26.9407  -34.4031   17.2401 C.3         1 PAX       0.1432
     28 O2        -25.5356  -34.5910   17.4069 O.3         1 PAX      -0.3832
     29 C3        -27.5758  -35.4470   16.3105 C.3         1 PAX       0.1487
     30 O3        -26.6625  -35.7883   15.2353 O.3         1 PAX      -0.2674
     31 O5        -40.0564  -36.0177   15.9693 O.3         1 PAX      -0.2734
     32 C5        -38.7537  -36.4537   15.5231 C.3         1 PAX       0.1074
     33 C4        -37.5710  -35.6028   16.0679 C.3         1 PAX       0.1209
     34 O4        -37.5799  -35.6693   17.5009 O.3         1 PAX      -0.3391
     35 C1        -36.2433  -35.7740   18.0230 C.3         1 PAX       0.1760
     36 C2        -35.5321  -36.5759   16.9081 C.3         1 PAX       0.0362
     37 C3        -36.1678  -36.0740   15.5965 C.3         1 PAX       0.1284
     38 O3        -35.4843  -34.9461   15.0006 O.3         1 PAX      -0.2441
     39 PD        -40.6997  -34.7623   15.3007 P.3         1 PAX       0.2008
     40 O1D       -42.0581  -34.6781   15.7719 O.co2       1 PAX      -0.5537
     41 O2D       -40.7725  -34.8805   13.8672 O.co2       1 PAX      -0.5537
     42 O3D       -40.0556  -33.5241   15.6612 O.co2       1 PAX      -0.5537
     43 N1T       -36.1930  -36.3489   19.3694 N.am        1 PAX      -0.1736
     44 C6T       -35.0435  -36.9434   19.8281 C.2         1 PAX       0.0524
     45 C2T       -37.2383  -36.2838   20.2203 C.2         1 PAX       0.3265
     46 O2T       -38.2802  -35.6895   19.9844 O.2         1 PAX      -0.3843
     47 N3T       -37.1832  -36.8727   21.4084 N.am        1 PAX      -0.1859
     48 C4T       -36.1024  -37.5296   21.8110 C.2         1 PAX       0.1930
     49 O4T       -36.1606  -38.0694   22.9061 O.2         1 PAX      -0.4079
     50 C5T       -34.9679  -37.5604   21.0334 C.2         1 PAX       0.0225
     51 CM5       -33.7476  -38.2291   21.4883 C.3         1 PAX      -0.0437
     52 H1        -31.2955  -30.0558   17.7837 H           1 PAX       0.0996
     53 H2        -27.1200  -28.3908   20.5304 H           1 PAX       0.1820
     54 H3        -28.6075  -27.6234   20.5196 H           1 PAX       0.1820
     55 H4        -25.1617  -31.9324   17.9988 H           1 PAX       0.1349
     56 H5        -30.0892  -36.1834   16.7013 H           1 PAX       0.0648
     57 H6        -30.4833  -34.5471   17.1785 H           1 PAX       0.0648
     58 H7        -28.8398  -34.7965   14.6633 H           1 PAX       0.0654
     59 H8        -26.6325  -32.8920   15.7099 H           1 PAX       0.0996
     60 H9        -27.4195  -34.4470   18.2254 H           1 PAX       0.0680
     61 H10       -25.4401  -35.5121   17.7298 H           1 PAX       0.2101
     62 H11       -27.8357  -36.3201   16.9226 H           1 PAX       0.0704
     63 H12       -38.6979  -36.5171   14.4324 H           1 PAX       0.0639
     64 H13       -38.6354  -37.4708   15.9039 H           1 PAX       0.0639
     65 H14       -37.7365  -34.5608   15.7788 H           1 PAX       0.0653
     66 H15       -35.8107  -34.7686   18.0671 H           1 PAX       0.0959
     67 H16       -35.7356  -37.6463   17.0269 H           1 PAX       0.0348
     68 H17       -34.4500  -36.4186   16.9320 H           1 PAX       0.0348
     69 H18       -36.2504  -36.8960   14.8776 H           1 PAX       0.0686
     70 H19       -34.2265  -36.9248   19.2606 H           1 PAX       0.1011
     71 H20       -37.9590  -36.8341   21.9888 H           1 PAX       0.2259
     72 H21       -32.9327  -38.1646   20.7622 H           1 PAX       0.0296
     73 H22       -33.9471  -39.2897   21.6679 H           1 PAX       0.0296
     74 H23       -33.3963  -37.7774   22.4201 H           1 PAX       0.0296
@<TRIPOS>BOND
     1     1     2  ar
     2     1     3  ar
     3     1     4   1
     4     8     1   1
     5     4    23   1
     6     5     6  ar
     7     5     7  ar
     8     5     8   1
     9    38     5   1
    10     9    10  ar
    11     9    11  ar
    12     9    12  ar
    13    30     9   1
    14    13    14   1
    15    13    22   1
    16    26    13   1
    17    14    15  ar
    18    14    20  ar
    19    15    16  ar
    20    16    17  ar
    21    18    17  ar
    22    18    19   1
    23    20    18  ar
    24    21    20   1
    25    22    21   2
    26    23    24   1
    27    24    25   1
    28    24    29   1
    29    25    26   1
    30    27    26   1
    31    27    28   1
    32    29    27   1
    33    29    30   1
    34    32    31   1
    35    31    39   1
    36    33    32   1
    37    33    34   1
    38    37    33   1
    39    35    34   1
    40    36    35   1
    41    35    43   1
    42    37    36   1
    43    37    38   1
    44    39    40  ar
    45    39    41  ar
    46    39    42  ar
    47    43    44   1
    48    43    45  am
    49    44    50   2
    50    45    46   2
    51    45    47  am
    52    47    48  am
    53    48    49   2
    54    48    50   1
    55    50    51   1
    56    16    52   1
    57    19    53   1
    58    19    54   1
    59    22    55   1
    60    23    56   1
    61    23    57   1
    62    24    58   1
    63    26    59   1
    64    27    60   1
    65    28    61   1
    66    29    62   1
    67    32    63   1
    68    32    64   1
    69    33    65   1
    70    35    66   1
    71    36    67   1
    72    36    68   1
    73    37    69   1
    74    44    70   1
    75    47    71   1
    76    51    72   1
    77    51    73   1
    78    51    74   1
@<TRIPOS>SUBSTRUCTURE
     1  PAX     14

