@<TRIPOS>MOLECULE
1u1b_ligand_083
    74    78
SMALL
GAST_HUCK
****
This file was generated by PARSER (from files_GN.cpp)

@<TRIPOS>ATOM
      1 PA        -32.7062  -29.4853   16.8674 P.3         1 PAX       0.2972
      2 O1A       -33.0970  -28.4598   15.9334 O.co2       1 PAX      -0.6127
      3 O2A       -33.9242  -29.9837   17.4520 O.co2       1 PAX      -0.6127
      4 O5        -32.0539  -30.7215   16.1815 O.3         1 PAX      -0.2476
      5 PB        -30.6682  -28.0165   17.7876 P.3         1 PAX       0.2974
      6 O1B       -29.5910  -28.4705   18.6270 O.co2       1 PAX      -0.6127
      7 O2B       -30.0858  -28.0149   16.4662 O.co2       1 PAX      -0.6127
      8 O3A       -31.8323  -29.0192   18.0679 O.3         1 PAX      -0.1319
      9 PG        -34.8838  -35.2277   14.5354 P.3         1 PAX       0.2013
     10 O1G       -34.3341  -36.5549   14.6496 O.co2       1 PAX      -0.5537
     11 O2G       -35.6152  -34.8997   15.7327 O.co2       1 PAX      -0.5537
     12 O3G       -35.8200  -35.3174   13.4463 O.co2       1 PAX      -0.5537
     13 N9A       -29.4818  -34.4397   15.8680 N.pl3       1 PAX      -0.1919
     14 C4A       -29.0395  -33.8608   17.0001 C.ar        1 PAX       0.1613
     15 N3A       -29.4954  -32.7875   17.7015 N.ar        1 PAX      -0.2714
     16 C2A       -28.8796  -32.4323   18.8618 C.ar        1 PAX       0.0533
     17 N1A       -27.8255  -33.1576   19.3297 N.ar        1 PAX      -0.2698
     18 C6A       -27.3345  -34.2413   18.6629 C.ar        1 PAX       0.1298
     19 N6A       -26.3198  -34.9515   19.1708 N.pl3       1 PAX      -0.3152
     20 C5A       -27.9540  -34.6016   17.4509 C.ar        1 PAX       0.1045
     21 N7A       -27.7354  -35.6094   16.5938 N.2         1 PAX      -0.2958
     22 C8A       -28.6673  -35.4927   15.6288 C.2         1 PAX       0.1123
     23 C5        -32.4565  -30.9877   14.8192 C.3         1 PAX       0.1131
     24 C4        -32.1033  -32.4508   14.4542 C.3         1 PAX       0.1235
     25 O4        -30.7302  -32.7131   14.7882 O.3         1 PAX      -0.3360
     26 C1        -30.6564  -34.1033   15.1166 C.3         1 PAX       0.2013
     27 C2        -31.9399  -34.3725   15.9130 C.3         1 PAX       0.1432
     28 O2        -32.1673  -35.7706   16.0201 O.3         1 PAX      -0.3832
     29 C3        -32.9919  -33.5297   15.1571 C.3         1 PAX       0.1487
     30 O3        -33.7683  -34.2094   14.1336 O.3         1 PAX      -0.2674
     31 O5        -35.5676  -27.2922   17.8991 O.3         1 PAX      -0.2734
     32 C5        -34.5947  -26.8267   18.8609 C.3         1 PAX       0.1074
     33 C4        -33.3399  -26.0865   18.2996 C.3         1 PAX       0.1209
     34 O4        -33.6257  -24.6831   18.2169 O.3         1 PAX      -0.3391
     35 C1        -32.5816  -23.9271   18.8479 C.3         1 PAX       0.1760
     36 C2        -31.8666  -24.9085   19.7985 C.3         1 PAX       0.0362
     37 C3        -32.0341  -26.2785   19.1270 C.3         1 PAX       0.1284
     38 O3        -30.9011  -26.5465   18.2678 O.3         1 PAX      -0.2441
     39 PD        -36.2913  -26.2843   16.9608 P.3         1 PAX       0.2008
     40 O1D       -35.5135  -26.0436   15.7666 O.co2       1 PAX      -0.5537
     41 O2D       -36.6294  -25.0398   17.6062 O.co2       1 PAX      -0.5537
     42 O3D       -37.5222  -26.9028   16.5405 O.co2       1 PAX      -0.5537
     43 N1T       -33.0334  -22.7231   19.5352 N.am        1 PAX      -0.1736
     44 C6T       -32.1046  -21.7664   19.8508 C.2         1 PAX       0.0524
     45 C2T       -34.3122  -22.5194   19.9124 C.2         1 PAX       0.3265
     46 O2T       -35.2257  -23.3157   19.7367 O.2         1 PAX      -0.3843
     47 N3T       -34.6535  -21.4004   20.5399 N.am        1 PAX      -0.1859
     48 C4T       -33.7608  -20.4629   20.8316 C.2         1 PAX       0.1930
     49 O4T       -34.1761  -19.4654   21.4082 O.2         1 PAX      -0.4079
     50 C5T       -32.4356  -20.6280   20.5052 C.2         1 PAX       0.0225
     51 CM5       -31.4399  -19.6295   20.8827 C.3         1 PAX      -0.0437
     52 H1        -29.2258  -31.6316   19.3916 H           1 PAX       0.0996
     53 H2        -25.9824  -35.7336   18.7018 H           1 PAX       0.1820
     54 H3        -25.9495  -34.7221   20.0374 H           1 PAX       0.1820
     55 H4        -28.7658  -36.1490   14.8517 H           1 PAX       0.1349
     56 H5        -31.9092  -30.3087   14.1555 H           1 PAX       0.0648
     57 H6        -33.5290  -30.8355   14.6429 H           1 PAX       0.0648
     58 H7        -32.1955  -32.5446   13.3663 H           1 PAX       0.0654
     59 H8        -30.6785  -34.6737   14.1798 H           1 PAX       0.0996
     60 H9        -31.8429  -33.9659   16.9225 H           1 PAX       0.0680
     61 H10       -32.9068  -35.8621   16.6496 H           1 PAX       0.2101
     62 H11       -33.6656  -33.0537   15.8837 H           1 PAX       0.0704
     63 H12       -34.2785  -27.7398   19.3703 H           1 PAX       0.0639
     64 H13       -35.0845  -26.2081   19.6211 H           1 PAX       0.0639
     65 H14       -33.1647  -26.4228   17.2793 H           1 PAX       0.0653
     66 H15       -31.8943  -23.6439   18.0392 H           1 PAX       0.0959
     67 H16       -32.3641  -24.9117   20.7733 H           1 PAX       0.0348
     68 H17       -30.8147  -24.6466   19.9418 H           1 PAX       0.0348
     69 H18       -32.1194  -27.0339   19.9180 H           1 PAX       0.0686
     70 H19       -31.1538  -21.9107   19.5967 H           1 PAX       0.1011
     71 H20       -35.5784  -21.2664   20.7963 H           1 PAX       0.2259
     72 H21       -30.4257  -19.9141   20.5948 H           1 PAX       0.0296
     73 H22       -31.4518  -19.4963   21.9648 H           1 PAX       0.0296
     74 H23       -31.6732  -18.6763   20.4060 H           1 PAX       0.0296
@<TRIPOS>BOND
     1     1     2  ar
     2     1     3  ar
     3     1     4   1
     4     8     1   1
     5     4    23   1
     6     5     6  ar
     7     5     7  ar
     8     5     8   1
     9    38     5   1
    10     9    10  ar
    11     9    11  ar
    12     9    12  ar
    13    30     9   1
    14    13    14   1
    15    13    22   1
    16    26    13   1
    17    14    15  ar
    18    14    20  ar
    19    15    16  ar
    20    16    17  ar
    21    18    17  ar
    22    18    19   1
    23    20    18  ar
    24    21    20   1
    25    22    21   2
    26    23    24   1
    27    24    25   1
    28    24    29   1
    29    25    26   1
    30    27    26   1
    31    27    28   1
    32    29    27   1
    33    29    30   1
    34    32    31   1
    35    31    39   1
    36    33    32   1
    37    33    34   1
    38    37    33   1
    39    35    34   1
    40    36    35   1
    41    35    43   1
    42    37    36   1
    43    37    38   1
    44    39    40  ar
    45    39    41  ar
    46    39    42  ar
    47    43    44   1
    48    43    45  am
    49    44    50   2
    50    45    46   2
    51    45    47  am
    52    47    48  am
    53    48    49   2
    54    48    50   1
    55    50    51   1
    56    16    52   1
    57    19    53   1
    58    19    54   1
    59    22    55   1
    60    23    56   1
    61    23    57   1
    62    24    58   1
    63    26    59   1
    64    27    60   1
    65    28    61   1
    66    29    62   1
    67    32    63   1
    68    32    64   1
    69    33    65   1
    70    35    66   1
    71    36    67   1
    72    36    68   1
    73    37    69   1
    74    44    70   1
    75    47    71   1
    76    51    72   1
    77    51    73   1
    78    51    74   1
@<TRIPOS>SUBSTRUCTURE
     1  PAX     14

