@<TRIPOS>MOLECULE
1u1b_ligand_010
    74    78
SMALL
GAST_HUCK
****
This file was generated by PARSER (from files_GN.cpp)

@<TRIPOS>ATOM
      1 PA        -31.0317  -34.0831   16.3324 P.3         1 PAX       0.2972
      2 O1A       -31.3625  -35.3010   15.6296 O.co2       1 PAX      -0.6127
      3 O2A       -32.1727  -33.8846   17.1958 O.co2       1 PAX      -0.6127
      4 O5        -29.8765  -34.2240   17.3729 O.3         1 PAX      -0.2476
      5 PB        -30.2691  -32.7027   14.1511 P.3         1 PAX       0.2974
      6 O1B       -28.8676  -33.0390   14.1845 O.co2       1 PAX      -0.6127
      7 O2B       -30.9148  -33.5541   13.1812 O.co2       1 PAX      -0.6127
      8 O3A       -31.0111  -32.7502   15.5221 O.3         1 PAX      -0.1319
      9 PG        -28.3249  -30.5226   19.1487 P.3         1 PAX       0.2013
     10 O1G       -27.2059  -29.6986   19.5434 O.co2       1 PAX      -0.5537
     11 O2G       -28.9938  -29.9429   18.0073 O.co2       1 PAX      -0.5537
     12 O3G       -29.2711  -30.4805   20.2346 O.co2       1 PAX      -0.5537
     13 N9A       -24.0346  -33.7681   16.8110 N.pl3       1 PAX      -0.1919
     14 C4A       -22.9432  -34.4500   17.2014 C.ar        1 PAX       0.1613
     15 N3A       -22.6438  -35.0678   18.3744 N.ar        1 PAX      -0.2714
     16 C2A       -21.4741  -35.7469   18.5008 C.ar        1 PAX       0.0533
     17 N1A       -20.6049  -35.8136   17.4555 N.ar        1 PAX      -0.2698
     18 C6A       -20.8706  -35.2184   16.2592 C.ar        1 PAX       0.1298
     19 N6A       -19.9945  -35.3320   15.2481 N.pl3       1 PAX      -0.3152
     20 C5A       -22.0735  -34.5162   16.1172 C.ar        1 PAX       0.1045
     21 N7A       -22.6378  -33.8763   15.0828 N.2         1 PAX      -0.2958
     22 C8A       -23.8295  -33.4294   15.5171 C.2         1 PAX       0.1123
     23 C5        -28.5985  -34.6740   16.8743 C.3         1 PAX       0.1131
     24 C4        -27.4569  -34.0489   17.7096 C.3         1 PAX       0.1235
     25 O4        -26.2105  -34.4985   17.1661 O.3         1 PAX      -0.3360
     26 C1        -25.2230  -33.5599   17.5868 C.3         1 PAX       0.2013
     27 C2        -25.9111  -32.1830   17.4509 C.3         1 PAX       0.1432
     28 O2        -25.3225  -31.2350   18.3372 O.3         1 PAX      -0.3832
     29 C3        -27.4085  -32.4932   17.7189 C.3         1 PAX       0.1487
     30 O3        -27.9455  -32.0246   18.9859 O.3         1 PAX      -0.2674
     31 O5        -30.9032  -28.5103   16.5247 O.3         1 PAX      -0.2734
     32 C5        -30.4007  -27.9219   15.3081 C.3         1 PAX       0.1074
     33 C4        -30.3619  -28.8528   14.0604 C.3         1 PAX       0.1209
     34 O4        -29.6796  -28.1741   12.9906 O.3         1 PAX      -0.3391
     35 C1        -28.5119  -28.9274   12.6055 C.3         1 PAX       0.1760
     36 C2        -28.2510  -29.9437   13.7350 C.3         1 PAX       0.0362
     37 C3        -29.6550  -30.2130   14.3043 C.3         1 PAX       0.1284
     38 O3        -30.3747  -31.2523   13.5862 O.3         1 PAX      -0.2441
     39 PD        -32.4071  -28.8920   16.6474 P.3         1 PAX       0.2008
     40 O1D       -32.6171  -29.2820   18.0176 O.co2       1 PAX      -0.5537
     41 O2D       -32.7809  -30.0181   15.8275 O.co2       1 PAX      -0.5537
     42 O3D       -33.2703  -27.7654   16.3772 O.co2       1 PAX      -0.5537
     43 N1T       -27.3553  -28.0872   12.3163 N.am        1 PAX      -0.1736
     44 C6T       -27.1354  -26.9427   13.0376 C.2         1 PAX       0.0524
     45 C2T       -26.4575  -28.4078   11.3573 C.2         1 PAX       0.3265
     46 O2T       -26.5262  -29.4269   10.6826 O.2         1 PAX      -0.3843
     47 N3T       -25.4295  -27.6016   11.1021 N.am        1 PAX      -0.1859
     48 C4T       -25.2484  -26.4688   11.7697 C.2         1 PAX       0.1930
     49 O4T       -24.2825  -25.7837   11.4603 O.2         1 PAX      -0.4079
     50 C5T       -26.1056  -26.1013   12.7776 C.2         1 PAX       0.0225
     51 CM5       -25.9274  -24.8526   13.5081 C.3         1 PAX      -0.0437
     52 H1        -21.2506  -36.2140   19.3778 H           1 PAX       0.0996
     53 H2        -20.1848  -34.9206   14.3892 H           1 PAX       0.1820
     54 H3        -19.1724  -35.8359   15.3684 H           1 PAX       0.1820
     55 H4        -24.4941  -32.9344   14.9162 H           1 PAX       0.1349
     56 H5        -28.4180  -34.4240   15.8258 H           1 PAX       0.0648
     57 H6        -28.5540  -35.7626   16.9584 H           1 PAX       0.0648
     58 H7        -27.5348  -34.4244   18.7379 H           1 PAX       0.0654
     59 H8        -25.0147  -33.7445   18.6474 H           1 PAX       0.0996
     60 H9        -25.8170  -31.7981   16.4272 H           1 PAX       0.0680
     61 H10       -24.5053  -30.9251   17.8972 H           1 PAX       0.2101
     62 H11       -28.0101  -32.1096   16.8793 H           1 PAX       0.0704
     63 H12       -29.3790  -27.6222   15.5327 H           1 PAX       0.0639
     64 H13       -30.9478  -27.0083   15.0685 H           1 PAX       0.0639
     65 H14       -31.3913  -29.0152   13.7369 H           1 PAX       0.0653
     66 H15       -28.8128  -29.4867   11.7101 H           1 PAX       0.0959
     67 H16       -27.6226  -29.4969   14.5074 H           1 PAX       0.0348
     68 H17       -27.7616  -30.8415   13.3545 H           1 PAX       0.0348
     69 H18       -29.5857  -30.4214   15.3801 H           1 PAX       0.0686
     70 H19       -27.7620  -26.7107   13.7730 H           1 PAX       0.1011
     71 H20       -24.7970  -27.8458   10.4037 H           1 PAX       0.2259
     72 H21       -26.6734  -24.7076   14.2917 H           1 PAX       0.0296
     73 H22       -26.0028  -24.0120   12.8168 H           1 PAX       0.0296
     74 H23       -24.9436  -24.8315   13.9783 H           1 PAX       0.0296
@<TRIPOS>BOND
     1     1     2  ar
     2     1     3  ar
     3     1     4   1
     4     8     1   1
     5     4    23   1
     6     5     6  ar
     7     5     7  ar
     8     5     8   1
     9    38     5   1
    10     9    10  ar
    11     9    11  ar
    12     9    12  ar
    13    30     9   1
    14    13    14   1
    15    13    22   1
    16    26    13   1
    17    14    15  ar
    18    14    20  ar
    19    15    16  ar
    20    16    17  ar
    21    18    17  ar
    22    18    19   1
    23    20    18  ar
    24    21    20   1
    25    22    21   2
    26    23    24   1
    27    24    25   1
    28    24    29   1
    29    25    26   1
    30    27    26   1
    31    27    28   1
    32    29    27   1
    33    29    30   1
    34    32    31   1
    35    31    39   1
    36    33    32   1
    37    33    34   1
    38    37    33   1
    39    35    34   1
    40    36    35   1
    41    35    43   1
    42    37    36   1
    43    37    38   1
    44    39    40  ar
    45    39    41  ar
    46    39    42  ar
    47    43    44   1
    48    43    45  am
    49    44    50   2
    50    45    46   2
    51    45    47  am
    52    47    48  am
    53    48    49   2
    54    48    50   1
    55    50    51   1
    56    16    52   1
    57    19    53   1
    58    19    54   1
    59    22    55   1
    60    23    56   1
    61    23    57   1
    62    24    58   1
    63    26    59   1
    64    27    60   1
    65    28    61   1
    66    29    62   1
    67    32    63   1
    68    32    64   1
    69    33    65   1
    70    35    66   1
    71    36    67   1
    72    36    68   1
    73    37    69   1
    74    44    70   1
    75    47    71   1
    76    51    72   1
    77    51    73   1
    78    51    74   1
@<TRIPOS>SUBSTRUCTURE
     1  PAX     14

