@<TRIPOS>MOLECULE
1u1b_ligand_033
    74    78
SMALL
GAST_HUCK
****
This file was generated by PARSER (from files_GN.cpp)

@<TRIPOS>ATOM
      1 PA        -32.8516  -31.1794   14.3268 P.3         1 PAX       0.2972
      2 O1A       -32.7747  -32.3920   13.5521 O.co2       1 PAX      -0.6127
      3 O2A       -34.0843  -31.2723   15.0638 O.co2       1 PAX      -0.6127
      4 O5        -31.6744  -31.1365   15.3463 O.3         1 PAX      -0.2476
      5 PB        -32.9601  -28.5366   13.9135 P.3         1 PAX       0.2974
      6 O1B       -34.1295  -28.0163   13.2499 O.co2       1 PAX      -0.6127
      7 O2B       -33.2826  -28.3313   15.3043 O.co2       1 PAX      -0.6127
      8 O3A       -32.8647  -29.9789   13.3284 O.3         1 PAX      -0.1319
      9 PG        -27.2852  -33.5027   17.8425 P.3         1 PAX       0.2013
     10 O1G       -26.7745  -34.4772   16.9084 O.co2       1 PAX      -0.5537
     11 O2G       -26.1976  -33.1309   18.7181 O.co2       1 PAX      -0.5537
     12 O3G       -28.3336  -34.1045   18.6287 O.co2       1 PAX      -0.5537
     13 N9A       -30.1069  -28.8396   18.7678 N.pl3       1 PAX      -0.1919
     14 C4A       -29.8295  -28.5846   20.0582 C.ar        1 PAX       0.1613
     15 N3A       -28.8188  -29.0125   20.8588 N.ar        1 PAX      -0.2714
     16 C2A       -28.7760  -28.6200   22.1633 C.ar        1 PAX       0.0533
     17 N1A       -29.7473  -27.8045   22.6617 N.ar        1 PAX      -0.2698
     18 C6A       -30.7739  -27.3482   21.8934 C.ar        1 PAX       0.1298
     19 N6A       -31.7135  -26.5559   22.4182 N.pl3       1 PAX      -0.3152
     20 C5A       -30.8177  -27.7363   20.5450 C.ar        1 PAX       0.1045
     21 N7A       -31.6740  -27.4645   19.5505 N.2         1 PAX      -0.2958
     22 C8A       -31.2263  -28.1362   18.4719 C.2         1 PAX       0.1123
     23 C5        -30.3491  -31.1624   14.7728 C.3         1 PAX       0.1131
     24 C4        -29.3053  -30.8163   15.8660 C.3         1 PAX       0.1235
     25 O4        -29.7030  -29.5988   16.5205 O.3         1 PAX      -0.3360
     26 C1        -29.3720  -29.7261   17.9083 C.3         1 PAX       0.2013
     27 C2        -29.6698  -31.2058   18.2190 C.3         1 PAX       0.1432
     28 O2        -29.0675  -31.6109   19.4532 O.3         1 PAX      -0.3832
     29 C3        -29.1274  -31.9151   16.9576 C.3         1 PAX       0.1487
     30 O3        -27.7125  -32.2216   17.0746 O.3         1 PAX      -0.2674
     31 O5        -29.8317  -23.5904   15.3245 O.3         1 PAX      -0.2734
     32 C5        -30.3373  -24.9315   15.5696 C.3         1 PAX       0.1074
     33 C4        -30.7887  -25.5675   14.2140 C.3         1 PAX       0.1209
     34 O4        -29.8813  -25.1613   13.1710 O.3         1 PAX      -0.3391
     35 C1        -29.1369  -26.2941   12.6941 C.3         1 PAX       0.1760
     36 C2        -29.4221  -27.4461   13.6826 C.3         1 PAX       0.0362
     37 C3        -30.8153  -27.1259   14.2388 C.3         1 PAX       0.1284
     38 O3        -31.8603  -27.5907   13.3445 O.3         1 PAX      -0.2441
     39 PD        -29.2087  -22.8704   16.5599 P.3         1 PAX       0.2008
     40 O1D       -28.5844  -21.6625   16.0842 O.co2       1 PAX      -0.5537
     41 O2D       -28.1628  -23.6561   17.1685 O.co2       1 PAX      -0.5537
     42 O3D       -30.1971  -22.5176   17.5511 O.co2       1 PAX      -0.5537
     43 N1T       -27.7108  -26.0907   12.4819 N.am        1 PAX      -0.1736
     44 C6T       -27.0258  -27.0401   11.7742 C.2         1 PAX       0.0524
     45 C2T       -27.0346  -25.0121   12.9274 C.2         1 PAX       0.3265
     46 O2T       -27.5289  -24.1193   13.6025 O.2         1 PAX      -0.3843
     47 N3T       -25.7412  -24.8817   12.6510 N.am        1 PAX      -0.1859
     48 C4T       -25.0816  -25.7790   11.9309 C.2         1 PAX       0.1930
     49 O4T       -23.9189  -25.5169   11.6664 O.2         1 PAX      -0.4079
     50 C5T       -25.7044  -26.9298   11.5065 C.2         1 PAX       0.0225
     51 CM5       -24.9979  -28.0091   10.8192 C.3         1 PAX      -0.0437
     52 H1        -28.0177  -28.9450   22.7646 H           1 PAX       0.0996
     53 H2        -32.4466  -26.2379   21.8700 H           1 PAX       0.1820
     54 H3        -31.6487  -26.2779   23.3431 H           1 PAX       0.1820
     55 H4        -31.7049  -28.1331   17.5650 H           1 PAX       0.1349
     56 H5        -30.2429  -30.4286   13.9651 H           1 PAX       0.0648
     57 H6        -30.1222  -32.1559   14.3583 H           1 PAX       0.0648
     58 H7        -28.3507  -30.6268   15.3591 H           1 PAX       0.0654
     59 H8        -28.3010  -29.5147   18.0269 H           1 PAX       0.0996
     60 H9        -30.7560  -31.3501   18.2803 H           1 PAX       0.0680
     61 H10       -29.7329  -32.1453   19.9420 H           1 PAX       0.2101
     62 H11       -29.7348  -32.8025   16.7238 H           1 PAX       0.0704
     63 H12       -31.2115  -24.8945   16.2497 H           1 PAX       0.0639
     64 H13       -29.5598  -25.5746   16.0223 H           1 PAX       0.0639
     65 H14       -31.7803  -25.1606   13.9715 H           1 PAX       0.0653
     66 H15       -29.6058  -26.5497   11.7327 H           1 PAX       0.0959
     67 H16       -28.6871  -27.4484   14.4978 H           1 PAX       0.0348
     68 H17       -29.4141  -28.4142   13.1828 H           1 PAX       0.0348
     69 H18       -30.9054  -27.4970   15.2731 H           1 PAX       0.0686
     70 H19       -27.5006  -27.8624   11.4662 H           1 PAX       0.1011
     71 H20       -25.2738  -24.0897   12.9597 H           1 PAX       0.2259
     72 H21       -25.0866  -28.9332   11.3926 H           1 PAX       0.0296
     73 H22       -23.9324  -27.8044   10.6909 H           1 PAX       0.0296
     74 H23       -25.4277  -28.1685    9.8292 H           1 PAX       0.0296
@<TRIPOS>BOND
     1     1     2  ar
     2     1     3  ar
     3     1     4   1
     4     8     1   1
     5     4    23   1
     6     5     6  ar
     7     5     7  ar
     8     5     8   1
     9    38     5   1
    10     9    10  ar
    11     9    11  ar
    12     9    12  ar
    13    30     9   1
    14    13    14   1
    15    13    22   1
    16    26    13   1
    17    14    15  ar
    18    14    20  ar
    19    15    16  ar
    20    16    17  ar
    21    18    17  ar
    22    18    19   1
    23    20    18  ar
    24    21    20   1
    25    22    21   2
    26    23    24   1
    27    24    25   1
    28    24    29   1
    29    25    26   1
    30    27    26   1
    31    27    28   1
    32    29    27   1
    33    29    30   1
    34    32    31   1
    35    31    39   1
    36    33    32   1
    37    33    34   1
    38    37    33   1
    39    35    34   1
    40    36    35   1
    41    35    43   1
    42    37    36   1
    43    37    38   1
    44    39    40  ar
    45    39    41  ar
    46    39    42  ar
    47    43    44   1
    48    43    45  am
    49    44    50   2
    50    45    46   2
    51    45    47  am
    52    47    48  am
    53    48    49   2
    54    48    50   1
    55    50    51   1
    56    16    52   1
    57    19    53   1
    58    19    54   1
    59    22    55   1
    60    23    56   1
    61    23    57   1
    62    24    58   1
    63    26    59   1
    64    27    60   1
    65    28    61   1
    66    29    62   1
    67    32    63   1
    68    32    64   1
    69    33    65   1
    70    35    66   1
    71    36    67   1
    72    36    68   1
    73    37    69   1
    74    44    70   1
    75    47    71   1
    76    51    72   1
    77    51    73   1
    78    51    74   1
@<TRIPOS>SUBSTRUCTURE
     1  PAX     14

