@<TRIPOS>MOLECULE
1u1b_ligand_084
    74    78
SMALL
GAST_HUCK
****
This file was generated by PARSER (from files_GN.cpp)

@<TRIPOS>ATOM
      1 PA        -31.9249  -32.0898   16.0511 P.3         1 PAX       0.2972
      2 O1A       -31.6054  -33.3904   15.5125 O.co2       1 PAX      -0.6127
      3 O2A       -33.0212  -32.3362   16.9537 O.co2       1 PAX      -0.6127
      4 O5        -30.7630  -31.5072   16.9070 O.3         1 PAX      -0.2476
      5 PB        -32.7443  -29.7183   15.1629 P.3         1 PAX       0.2974
      6 O1B       -33.8287  -29.3240   14.2942 O.co2       1 PAX      -0.6127
      7 O2B       -33.2173  -29.3941   16.4866 O.co2       1 PAX      -0.6127
      8 O3A       -32.4972  -31.2348   14.8910 O.3         1 PAX      -0.1319
      9 PG        -26.2897  -33.5638   17.7539 P.3         1 PAX       0.2013
     10 O1G       -26.1933  -33.1074   16.3871 O.co2       1 PAX      -0.5537
     11 O2G       -24.9410  -33.7896   18.2130 O.co2       1 PAX      -0.5537
     12 O3G       -27.0077  -34.8164   17.8045 O.co2       1 PAX      -0.5537
     13 N9A       -29.2811  -29.0174   20.2646 N.pl3       1 PAX      -0.1919
     14 C4A       -30.3186  -28.2325   19.9184 C.ar        1 PAX       0.1613
     15 N3A       -30.9522  -28.0474   18.7333 N.ar        1 PAX      -0.2714
     16 C2A       -31.9960  -27.1780   18.6502 C.ar        1 PAX       0.0533
     17 N1A       -32.4085  -26.4975   19.7540 N.ar        1 PAX      -0.2698
     18 C6A       -31.8019  -26.6515   20.9644 C.ar        1 PAX       0.1298
     19 N6A       -32.2422  -25.9535   22.0220 N.pl3       1 PAX      -0.3152
     20 C5A       -30.7204  -27.5419   21.0597 C.ar        1 PAX       0.1045
     21 N7A       -29.9258  -27.9007   22.0788 N.2         1 PAX      -0.2958
     22 C8A       -29.0539  -28.7939   21.5795 C.2         1 PAX       0.1123
     23 C5        -29.4665  -31.3811   16.2923 C.3         1 PAX       0.1131
     24 C4        -28.4357  -31.0088   17.3826 C.3         1 PAX       0.1235
     25 O4        -28.8561  -29.7974   18.0307 O.3         1 PAX      -0.3360
     26 C1        -28.5372  -29.9125   19.4222 C.3         1 PAX       0.2013
     27 C2        -28.8257  -31.3927   19.7216 C.3         1 PAX       0.1432
     28 O2        -28.2547  -31.8410   20.9480 O.3         1 PAX      -0.3832
     29 C3        -28.2789  -32.1103   18.4773 C.3         1 PAX       0.1487
     30 O3        -26.8953  -32.4839   18.6986 O.3         1 PAX      -0.2674
     31 O5        -30.3001  -28.2906   10.7616 O.3         1 PAX      -0.2734
     32 C5        -30.5598  -29.6294   11.2651 C.3         1 PAX       0.1074
     33 C4        -30.3580  -29.6174   12.8086 C.3         1 PAX       0.1209
     34 O4        -28.9611  -29.4673   13.1191 O.3         1 PAX      -0.3391
     35 C1        -28.6936  -28.1647   13.6777 C.3         1 PAX       0.1760
     36 C2        -30.0381  -27.3893   13.6427 C.3         1 PAX       0.0362
     37 C3        -31.1104  -28.4922   13.5686 C.3         1 PAX       0.1284
     38 O3        -31.4668  -28.8406   14.9241 O.3         1 PAX      -0.2441
     39 PD        -30.0972  -28.0835    9.2228 P.3         1 PAX       0.2008
     40 O1D       -29.4252  -29.1283    8.4860 O.co2       1 PAX      -0.5537
     41 O2D       -29.1579  -26.9800    9.2074 O.co2       1 PAX      -0.5537
     42 O3D       -31.2734  -27.5978    8.5301 O.co2       1 PAX      -0.5537
     43 N1T       -27.5846  -27.4342   13.0645 N.am        1 PAX      -0.1736
     44 C6T       -27.1618  -26.2886   13.6793 C.2         1 PAX       0.0524
     45 C2T       -26.9309  -27.8441   11.9532 C.2         1 PAX       0.3265
     46 O2T       -27.2132  -28.8422   11.3051 O.2         1 PAX      -0.3843
     47 N3T       -25.9057  -27.1410   11.4899 N.am        1 PAX      -0.1859
     48 C4T       -25.4884  -26.0335   12.0867 C.2         1 PAX       0.1930
     49 O4T       -24.5230  -25.4639   11.5920 O.2         1 PAX      -0.4079
     50 C5T       -26.1201  -25.5655   13.2129 C.2         1 PAX       0.0225
     51 CM5       -25.6686  -24.3472   13.8690 C.3         1 PAX      -0.0437
     52 H1        -32.4637  -27.0303   17.7561 H           1 PAX       0.0996
     53 H2        -31.7927  -26.0239   22.8784 H           1 PAX       0.1820
     54 H3        -32.9970  -25.3548   21.9198 H           1 PAX       0.1820
     55 H4        -28.3168  -29.2315   22.1337 H           1 PAX       0.1349
     56 H5        -29.4662  -30.5882   15.5455 H           1 PAX       0.0648
     57 H6        -29.1407  -32.3121   15.8208 H           1 PAX       0.0648
     58 H7        -27.4685  -30.8038   16.9025 H           1 PAX       0.0654
     59 H8        -27.4675  -29.6955   19.5426 H           1 PAX       0.0996
     60 H9        -29.9072  -31.5508   19.7755 H           1 PAX       0.0680
     61 H10       -27.3138  -31.5792   20.9058 H           1 PAX       0.2101
     62 H11       -28.9062  -32.9925   18.2970 H           1 PAX       0.0704
     63 H12       -29.8587  -30.3728   10.8295 H           1 PAX       0.0639
     64 H13       -31.5914  -29.9471   11.0283 H           1 PAX       0.0639
     65 H14       -30.6687  -30.5890   13.1824 H           1 PAX       0.0653
     66 H15       -28.4434  -28.3475   14.7311 H           1 PAX       0.0959
     67 H16       -30.0758  -26.7494   12.7509 H           1 PAX       0.0348
     68 H17       -30.1604  -26.7427   14.5282 H           1 PAX       0.0348
     69 H18       -31.9611  -28.0884   13.0120 H           1 PAX       0.0686
     70 H19       -27.6318  -25.9760   14.4979 H           1 PAX       0.1011
     71 H20       -25.4385  -27.4544   10.7003 H           1 PAX       0.2259
     72 H21       -26.2524  -24.0980   14.7563 H           1 PAX       0.0296
     73 H22       -25.7436  -23.5152   13.1668 H           1 PAX       0.0296
     74 H23       -24.6269  -24.4666   14.1715 H           1 PAX       0.0296
@<TRIPOS>BOND
     1     1     2  ar
     2     1     3  ar
     3     1     4   1
     4     8     1   1
     5     4    23   1
     6     5     6  ar
     7     5     7  ar
     8     5     8   1
     9    38     5   1
    10     9    10  ar
    11     9    11  ar
    12     9    12  ar
    13    30     9   1
    14    13    14   1
    15    13    22   1
    16    26    13   1
    17    14    15  ar
    18    14    20  ar
    19    15    16  ar
    20    16    17  ar
    21    18    17  ar
    22    18    19   1
    23    20    18  ar
    24    21    20   1
    25    22    21   2
    26    23    24   1
    27    24    25   1
    28    24    29   1
    29    25    26   1
    30    27    26   1
    31    27    28   1
    32    29    27   1
    33    29    30   1
    34    32    31   1
    35    31    39   1
    36    33    32   1
    37    33    34   1
    38    37    33   1
    39    35    34   1
    40    36    35   1
    41    35    43   1
    42    37    36   1
    43    37    38   1
    44    39    40  ar
    45    39    41  ar
    46    39    42  ar
    47    43    44   1
    48    43    45  am
    49    44    50   2
    50    45    46   2
    51    45    47  am
    52    47    48  am
    53    48    49   2
    54    48    50   1
    55    50    51   1
    56    16    52   1
    57    19    53   1
    58    19    54   1
    59    22    55   1
    60    23    56   1
    61    23    57   1
    62    24    58   1
    63    26    59   1
    64    27    60   1
    65    28    61   1
    66    29    62   1
    67    32    63   1
    68    32    64   1
    69    33    65   1
    70    35    66   1
    71    36    67   1
    72    36    68   1
    73    37    69   1
    74    44    70   1
    75    47    71   1
    76    51    72   1
    77    51    73   1
    78    51    74   1
@<TRIPOS>SUBSTRUCTURE
     1  PAX     14

