@<TRIPOS>MOLECULE
1u33_ligand_076
    70    72
SMALL
GAST_HUCK
****
This file was generated by PARSER (from files_GN.cpp)

@<TRIPOS>ATOM
      1 CA1         0.4483   15.5209   38.1234 C.2         1 MOL       0.1322
      2 NA1        -0.7344   15.7521   37.5149 N.2         1 MOL      -0.2068
      3 OA7        -1.2661   16.9299   37.3475 O.3         1 MOL      -0.3046
      4 CA2         1.2695   16.6238   38.6945 C.3         1 MOL       0.1504
      5 OA2         1.4422   17.6409   37.7029 O.3         1 MOL      -0.3713
      6 CA3         2.6691   16.1708   39.2035 C.3         1 MOL       0.1237
      7 OA3         3.1604   17.1198   40.1483 O.3         1 MOL      -0.3840
      8 CA4         2.6390   14.7520   39.8338 C.3         1 MOL       0.1169
      9 OA4         3.8889   14.2933   40.4015 O.3         1 MOL      -0.3402
     10 CA5         2.0269   13.7369   38.8189 C.3         1 MOL       0.0902
     11 NA5         0.8131   14.2222   38.2240 N.pl3       1 MOL      -0.2990
     12 CA6         1.8009   12.3415   39.4789 C.3         1 MOL       0.0694
     13 OA6         0.8526   11.5401   38.7687 O.3         1 MOL      -0.3927
     14 CB1         5.1394   14.4035   39.6878 C.3         1 MOL       0.1884
     15 CB2         6.1988   13.5271   40.4112 C.3         1 MOL       0.1341
     16 CB3         7.6205   13.7836   39.8309 C.3         1 MOL       0.1144
     17 CB4         7.9666   15.3087   39.7846 C.3         1 MOL       0.1184
     18 CB5         6.8196   16.1213   39.1014 C.3         1 MOL       0.1134
     19 CB6         6.7431   16.0799   37.5466 C.3         1 MOL       0.0730
     20 OB2         6.1661   13.8118   41.8127 O.3         1 MOL      -0.3841
     21 OB3         7.7339   13.2004   38.5340 O.3         1 MOL      -0.3864
     22 OB4         8.1302   15.9092   41.0927 O.3         1 MOL      -0.3401
     23 OB5         5.5522   15.7856   39.7042 O.3         1 MOL      -0.3405
     24 OB6         7.8461   16.7558   36.9356 O.3         1 MOL      -0.3924
     25 CD1         8.9212   15.2938   42.1359 C.3         1 MOL       0.1884
     26 CD2         8.9439   16.2055   43.3893 C.3         1 MOL       0.1341
     27 CD3         9.8554   17.4440   43.1577 C.3         1 MOL       0.1143
     28 CD4        11.2827   17.0202   42.6967 C.3         1 MOL       0.1150
     29 CD5        11.1849   16.0311   41.4914 C.3         1 MOL       0.1133
     30 CD6        12.5251   15.3227   41.1454 C.3         1 MOL       0.0730
     31 OD2         7.6017   16.5858   43.7073 O.3         1 MOL      -0.3841
     32 OD3         9.9210   18.2071   44.3651 O.3         1 MOL      -0.3864
     33 OD4        12.0766   18.1399   42.2423 O.3         1 MOL      -0.3745
     34 OD5        10.2610   14.9479   41.7426 O.3         1 MOL      -0.3405
     35 OD6        13.6511   16.1937   41.0814 O.3         1 MOL      -0.3924
     36 CD7        12.4190   19.1770   43.1778 C.3         1 MOL       0.0370
     37 H1         -2.0621   16.7658   36.7922 H           1 MOL       0.2523
     38 H2          0.7023   17.0485   39.5274 H           1 MOL       0.0843
     39 H3          2.1819   18.2034   38.0231 H           1 MOL       0.2137
     40 H4          3.3531   16.1607   38.3527 H           1 MOL       0.0674
     41 H5          2.5847   17.0231   40.9382 H           1 MOL       0.2103
     42 H6          1.9545   14.8060   40.6845 H           1 MOL       0.0650
     43 H7          2.7275   13.5889   37.9905 H           1 MOL       0.0603
     44 H8          0.2344   13.5695   37.7914 H           1 MOL       0.1812
     45 H9          1.4577   12.4486   40.5159 H           1 MOL       0.0581
     46 H10         2.7512   11.8028   39.4899 H           1 MOL       0.0581
     47 H11         0.0241   11.6211   39.3007 H           1 MOL       0.2095
     48 H12         5.0173   14.0495   38.6619 H           1 MOL       0.0938
     49 H13         5.9345   12.4730   40.2861 H           1 MOL       0.0671
     50 H14         8.3623   13.2685   40.4439 H           1 MOL       0.0648
     51 H15         8.8987   15.4433   39.2308 H           1 MOL       0.0651
     52 H16         6.9705   17.1774   39.3398 H           1 MOL       0.0647
     53 H17         5.8289   16.5876   37.2175 H           1 MOL       0.0584
     54 H18         6.7059   15.0544   37.1709 H           1 MOL       0.0584
     55 H19         6.3956   12.9763   42.2713 H           1 MOL       0.2101
     56 H20         7.8131   12.2355   38.6785 H           1 MOL       0.2100
     57 H21         8.6386   16.2493   37.2048 H           1 MOL       0.2095
     58 H22         8.4352   14.3645   42.4349 H           1 MOL       0.0938
     59 H23         9.3441   15.6336   44.2343 H           1 MOL       0.0671
     60 H24         9.4043   18.0736   42.3865 H           1 MOL       0.0648
     61 H25        11.7846   16.5071   43.5220 H           1 MOL       0.0649
     62 H26        10.8520   16.5849   40.6065 H           1 MOL       0.0647
     63 H27        12.4279   14.8285   40.1752 H           1 MOL       0.0584
     64 H28        12.7452   14.5522   41.8920 H           1 MOL       0.0584
     65 H29         7.6310   16.9376   44.6212 H           1 MOL       0.2101
     66 H30         8.9994   18.2603   44.6949 H           1 MOL       0.2100
     67 H31        13.8258   16.4402   42.0191 H           1 MOL       0.2095
     68 H32        13.1962   19.7984   42.7289 H           1 MOL       0.0524
     69 H33        12.8085   18.7686   44.1143 H           1 MOL       0.0524
     70 H34        11.5537   19.8100   43.3853 H           1 MOL       0.0524
@<TRIPOS>BOND
     1     1     2   2
     2     1     4   1
     3     1    11   1
     4     2     3   1
     5     4     5   1
     6     4     6   1
     7     6     7   1
     8     6     8   1
     9     8     9   1
    10     8    10   1
    11     9    14   1
    12    10    11   1
    13    10    12   1
    14    12    13   1
    15    14    15   1
    16    14    23   1
    17    15    16   1
    18    15    20   1
    19    16    17   1
    20    16    21   1
    21    17    18   1
    22    17    22   1
    23    18    19   1
    24    18    23   1
    25    19    24   1
    26    22    25   1
    27    25    26   1
    28    25    34   1
    29    26    27   1
    30    26    31   1
    31    27    28   1
    32    27    32   1
    33    28    29   1
    34    28    33   1
    35    29    30   1
    36    29    34   1
    37    30    35   1
    38    33    36   1
    39     3    37   1
    40     4    38   1
    41     5    39   1
    42     6    40   1
    43     7    41   1
    44     8    42   1
    45    10    43   1
    46    11    44   1
    47    12    45   1
    48    12    46   1
    49    13    47   1
    50    14    48   1
    51    15    49   1
    52    16    50   1
    53    17    51   1
    54    18    52   1
    55    19    53   1
    56    19    54   1
    57    20    55   1
    58    21    56   1
    59    24    57   1
    60    25    58   1
    61    26    59   1
    62    27    60   1
    63    28    61   1
    64    29    62   1
    65    30    63   1
    66    30    64   1
    67    31    65   1
    68    32    66   1
    69    35    67   1
    70    36    68   1
    71    36    69   1
    72    36    70   1
@<TRIPOS>SUBSTRUCTURE
     1  MOL      1

