@<TRIPOS>MOLECULE
1u33_ligand_001
    70    72
SMALL
GAST_HUCK
****
This file was generated by PARSER (from files_GN.cpp)

@<TRIPOS>ATOM
      1 CA1         4.6046   14.5627   42.5847 C.2         1 MOL       0.1322
      2 NA1         3.4377   13.9412   42.3042 N.2         1 MOL      -0.2068
      3 OA7         2.8064   14.0631   41.1691 O.3         1 MOL      -0.3046
      4 CA2         5.2470   14.3121   43.8917 C.3         1 MOL       0.1504
      5 OA2         4.3003   14.4913   44.9478 O.3         1 MOL      -0.3713
      6 CA3         6.4878   15.2068   44.1802 C.3         1 MOL       0.1237
      7 OA3         7.2209   14.5841   45.2354 O.3         1 MOL      -0.3840
      8 CA4         7.3643   15.4390   42.9116 C.3         1 MOL       0.1169
      9 OA4         8.4060   16.4260   43.1119 O.3         1 MOL      -0.3402
     10 CA5         6.4715   15.9700   41.7376 C.3         1 MOL       0.0902
     11 NA5         5.2043   15.3079   41.6265 N.pl3       1 MOL      -0.2990
     12 CA6         7.1914   15.8867   40.3636 C.3         1 MOL       0.0694
     13 OA6         6.5086   16.6312   39.3525 O.3         1 MOL      -0.3927
     14 CB1         9.6399   16.0571   43.7742 C.3         1 MOL       0.1884
     15 CB2        10.5523   17.3008   43.9462 C.3         1 MOL       0.1341
     16 CB3        11.1274   17.7535   42.5762 C.3         1 MOL       0.1144
     17 CB4        11.8899   16.5706   41.8949 C.3         1 MOL       0.1184
     18 CB5        10.9261   15.3437   41.8107 C.3         1 MOL       0.1134
     19 CB6        11.5982   14.0692   41.2442 C.3         1 MOL       0.0730
     20 OB2         9.8831   18.3689   44.6200 O.3         1 MOL      -0.3841
     21 OB3        11.9553   18.8957   42.7830 O.3         1 MOL      -0.3864
     22 OB4        12.2932   16.8855   40.5452 O.3         1 MOL      -0.3401
     23 OB5        10.3677   15.0070   43.0999 O.3         1 MOL      -0.3405
     24 OB6        12.4618   13.4623   42.2022 O.3         1 MOL      -0.3924
     25 CD1        13.5231   17.6125   40.3114 C.3         1 MOL       0.1884
     26 CD2        13.5044   18.1157   38.8431 C.3         1 MOL       0.1341
     27 CD3        13.7799   16.9534   37.8479 C.3         1 MOL       0.1143
     28 CD4        15.0692   16.1741   38.2389 C.3         1 MOL       0.1150
     29 CD5        14.9405   15.6981   39.7179 C.3         1 MOL       0.1133
     30 CD6        16.1835   14.9157   40.2188 C.3         1 MOL       0.0730
     31 OD2        12.2379   18.7229   38.5863 O.3         1 MOL      -0.3841
     32 OD3        13.8770   17.4525   36.5141 O.3         1 MOL      -0.3864
     33 OD4        15.2221   15.0211   37.3812 O.3         1 MOL      -0.3745
     34 OD5        14.7068   16.8269   40.5940 O.3         1 MOL      -0.3405
     35 OD6        17.4101   15.5021   39.7931 O.3         1 MOL      -0.3924
     36 CD7        16.2821   15.0764   36.4107 C.3         1 MOL       0.0370
     37 H1          2.7214   13.1399   40.8324 H           1 MOL       0.2523
     38 H2          5.5496   13.2628   43.8888 H           1 MOL       0.0843
     39 H3          4.5722   13.8569   45.6497 H           1 MOL       0.2137
     40 H4          6.1505   16.1790   44.5482 H           1 MOL       0.0674
     41 H5          7.5010   15.3169   45.8233 H           1 MOL       0.2103
     42 H6          7.7966   14.4782   42.6086 H           1 MOL       0.0650
     43 H7          6.2495   17.0254   41.9176 H           1 MOL       0.0603
     44 H8          4.7202   15.4198   40.7893 H           1 MOL       0.1812
     45 H9          7.2505   14.8448   40.0385 H           1 MOL       0.0581
     46 H10         8.2023   16.2870   40.4429 H           1 MOL       0.0581
     47 H11         7.0687   17.4208   39.1869 H           1 MOL       0.2095
     48 H12         9.4212   15.6873   44.7775 H           1 MOL       0.0938
     49 H13        11.3918   17.0077   44.5842 H           1 MOL       0.0671
     50 H14        10.3074   18.0658   41.9194 H           1 MOL       0.0648
     51 H15        12.7611   16.3037   42.5010 H           1 MOL       0.0651
     52 H16        10.1081   15.5881   41.1295 H           1 MOL       0.0647
     53 H17        12.1713   14.3083   40.3477 H           1 MOL       0.0584
     54 H18        10.8298   13.3515   40.9574 H           1 MOL       0.0584
     55 H19         9.4126   18.8696   43.9266 H           1 MOL       0.2101
     56 H20        11.3712   19.6556   42.5576 H           1 MOL       0.2100
     57 H21        12.1183   13.7468   43.0792 H           1 MOL       0.2095
     58 H22        13.5669   18.4941   40.9534 H           1 MOL       0.0938
     59 H23        14.2744   18.8805   38.7201 H           1 MOL       0.0671
     60 H24        12.9318   16.2599   37.8671 H           1 MOL       0.0648
     61 H25        15.9209   16.8602   38.1721 H           1 MOL       0.0649
     62 H26        14.0945   15.0094   39.7958 H           1 MOL       0.0647
     63 H27        16.1588   13.8960   39.8300 H           1 MOL       0.0584
     64 H28        16.1753   14.8588   41.3122 H           1 MOL       0.0584
     65 H29        12.2716   19.0497   37.6664 H           1 MOL       0.2101
     66 H30        14.7138   17.9585   36.4879 H           1 MOL       0.2100
     67 H31        17.5173   16.3358   40.3108 H           1 MOL       0.2095
     68 H32        16.2386   14.1724   35.8033 H           1 MOL       0.0524
     69 H33        17.2526   15.1100   36.9108 H           1 MOL       0.0524
     70 H34        16.1802   15.9423   35.7522 H           1 MOL       0.0524
@<TRIPOS>BOND
     1     1     2   2
     2     1     4   1
     3     1    11   1
     4     2     3   1
     5     4     5   1
     6     4     6   1
     7     6     7   1
     8     6     8   1
     9     8     9   1
    10     8    10   1
    11     9    14   1
    12    10    11   1
    13    10    12   1
    14    12    13   1
    15    14    15   1
    16    14    23   1
    17    15    16   1
    18    15    20   1
    19    16    17   1
    20    16    21   1
    21    17    18   1
    22    17    22   1
    23    18    19   1
    24    18    23   1
    25    19    24   1
    26    22    25   1
    27    25    26   1
    28    25    34   1
    29    26    27   1
    30    26    31   1
    31    27    28   1
    32    27    32   1
    33    28    29   1
    34    28    33   1
    35    29    30   1
    36    29    34   1
    37    30    35   1
    38    33    36   1
    39     3    37   1
    40     4    38   1
    41     5    39   1
    42     6    40   1
    43     7    41   1
    44     8    42   1
    45    10    43   1
    46    11    44   1
    47    12    45   1
    48    12    46   1
    49    13    47   1
    50    14    48   1
    51    15    49   1
    52    16    50   1
    53    17    51   1
    54    18    52   1
    55    19    53   1
    56    19    54   1
    57    20    55   1
    58    21    56   1
    59    24    57   1
    60    25    58   1
    61    26    59   1
    62    27    60   1
    63    28    61   1
    64    29    62   1
    65    30    63   1
    66    30    64   1
    67    31    65   1
    68    32    66   1
    69    35    67   1
    70    36    68   1
    71    36    69   1
    72    36    70   1
@<TRIPOS>SUBSTRUCTURE
     1  MOL      1

