@<TRIPOS>MOLECULE
1u33_ligand_042
    70    72
SMALL
GAST_HUCK
****
This file was generated by PARSER (from files_GN.cpp)

@<TRIPOS>ATOM
      1 CA1         5.4205   14.8392   38.0988 C.2         1 MOL       0.1322
      2 NA1         5.6806   14.8059   36.7714 N.2         1 MOL      -0.2068
      3 OA7         5.7254   13.7404   36.0221 O.3         1 MOL      -0.3046
      4 CA2         5.4770   16.1536   38.7849 C.3         1 MOL       0.1504
      5 OA2         6.8406   16.5894   38.7919 O.3         1 MOL      -0.3713
      6 CA3         4.9299   16.1416   40.2444 C.3         1 MOL       0.1237
      7 OA3         3.5162   16.2981   40.2641 O.3         1 MOL      -0.3840
      8 CA4         5.3417   14.8399   40.9853 C.3         1 MOL       0.1169
      9 OA4         6.7776   14.9227   41.1166 O.3         1 MOL      -0.3402
     10 CA5         4.8883   13.5747   40.1647 C.3         1 MOL       0.0902
     11 NA5         5.1473   13.6866   38.7647 N.pl3       1 MOL      -0.2990
     12 CA6         3.3981   13.1756   40.3514 C.3         1 MOL       0.0694
     13 OA6         3.0888   12.8736   41.7089 O.3         1 MOL      -0.3927
     14 CB1         7.5618   13.9544   41.8509 C.3         1 MOL       0.1884
     15 CB2         7.8501   14.4046   43.3064 C.3         1 MOL       0.1341
     16 CB3         8.7832   15.6489   43.3360 C.3         1 MOL       0.1144
     17 CB4        10.0560   15.4292   42.4564 C.3         1 MOL       0.1184
     18 CB5         9.6352   14.9483   41.0329 C.3         1 MOL       0.1134
     19 CB6        10.8023   14.6041   40.0585 C.3         1 MOL       0.0730
     20 OB2         6.6171   14.6616   43.9882 O.3         1 MOL      -0.3841
     21 OB3         9.1570   15.9311   44.6854 O.3         1 MOL      -0.3864
     22 OB4        10.7759   16.6781   42.3795 O.3         1 MOL      -0.3401
     23 OB5         8.8011   13.7721   41.1406 O.3         1 MOL      -0.3405
     24 OB6        11.9357   14.0156   40.7020 O.3         1 MOL      -0.3924
     25 CD1        11.9470   16.8421   43.2196 C.3         1 MOL       0.1884
     26 CD2        12.3231   18.3395   43.3912 C.3         1 MOL       0.1341
     27 CD3        12.7609   18.9426   42.0322 C.3         1 MOL       0.1143
     28 CD4        13.8382   18.1068   41.2832 C.3         1 MOL       0.1150
     29 CD5        13.5188   16.5565   41.3664 C.3         1 MOL       0.1133
     30 CD6        14.7035   15.6348   40.9797 C.3         1 MOL       0.0730
     31 OD2        11.2504   19.0766   43.9865 O.3         1 MOL      -0.3841
     32 OD3        13.2876   20.2513   42.2493 O.3         1 MOL      -0.3864
     33 OD4        13.9297   18.7158   39.9582 O.3         1 MOL      -0.3745
     34 OD5        13.0920   16.1623   42.6972 O.3         1 MOL      -0.3405
     35 OD6        14.8285   14.4688   41.8122 O.3         1 MOL      -0.3924
     36 CD7        13.1779   18.2357   38.8259 C.3         1 MOL       0.0370
     37 H1          6.5257   13.2403   36.3090 H           1 MOL       0.2523
     38 H2          4.9033   16.8822   38.2015 H           1 MOL       0.0843
     39 H3          6.8528   17.4498   38.3147 H           1 MOL       0.2137
     40 H4          5.3390   17.0007   40.7739 H           1 MOL       0.0674
     41 H5          3.3396   17.1945   39.8995 H           1 MOL       0.2103
     42 H6          4.9023   14.8404   41.9850 H           1 MOL       0.0650
     43 H7          5.4681   12.7194   40.5112 H           1 MOL       0.0603
     44 H8          5.0985   12.8712   38.2444 H           1 MOL       0.1812
     45 H9          3.1786   12.2934   39.7441 H           1 MOL       0.0581
     46 H10         2.7314   13.9754   40.0169 H           1 MOL       0.0581
     47 H11         3.9397   12.5926   42.1094 H           1 MOL       0.2095
     48 H12         7.0682   12.9812   41.8895 H           1 MOL       0.0938
     49 H13         8.3498   13.5850   43.8289 H           1 MOL       0.0671
     50 H14         8.2322   16.5170   42.9527 H           1 MOL       0.0648
     51 H15        10.6592   14.6396   42.9131 H           1 MOL       0.0651
     52 H16         9.0714   15.7499   40.5483 H           1 MOL       0.0647
     53 H17        11.1351   15.5115   39.5581 H           1 MOL       0.0584
     54 H18        10.4571   13.9152   39.2817 H           1 MOL       0.0584
     55 H19         6.2194   13.7732   44.1037 H           1 MOL       0.2101
     56 H20         8.4087   16.4324   45.0806 H           1 MOL       0.2100
     57 H21        11.6276   13.1220   40.9836 H           1 MOL       0.2095
     58 H22        11.7693   16.4381   44.2255 H           1 MOL       0.0938
     59 H23        13.1671   18.3991   44.0824 H           1 MOL       0.0671
     60 H24        11.8737   19.0427   41.3956 H           1 MOL       0.0648
     61 H25        14.7957   18.2567   41.7740 H           1 MOL       0.0649
     62 H26        12.6811   16.3730   40.6765 H           1 MOL       0.0647
     63 H27        15.6605   16.1715   41.0093 H           1 MOL       0.0584
     64 H28        14.5605   15.2488   39.9551 H           1 MOL       0.0584
     65 H29        10.7486   19.4875   43.2551 H           1 MOL       0.2101
     66 H30        12.7212   20.6578   42.9324 H           1 MOL       0.2100
     67 H31        15.5276   14.7065   42.4634 H           1 MOL       0.2095
     68 H32        13.5123   18.7764   37.9237 H           1 MOL       0.0524
     69 H33        12.1054   18.4622   38.9597 H           1 MOL       0.0524
     70 H34        13.3125   17.1512   38.6721 H           1 MOL       0.0524
@<TRIPOS>BOND
     1     1     2   2
     2     1     4   1
     3     1    11   1
     4     2     3   1
     5     4     5   1
     6     4     6   1
     7     6     7   1
     8     6     8   1
     9     8     9   1
    10     8    10   1
    11     9    14   1
    12    10    11   1
    13    10    12   1
    14    12    13   1
    15    14    15   1
    16    14    23   1
    17    15    16   1
    18    15    20   1
    19    16    17   1
    20    16    21   1
    21    17    18   1
    22    17    22   1
    23    18    19   1
    24    18    23   1
    25    19    24   1
    26    22    25   1
    27    25    26   1
    28    25    34   1
    29    26    27   1
    30    26    31   1
    31    27    28   1
    32    27    32   1
    33    28    29   1
    34    28    33   1
    35    29    30   1
    36    29    34   1
    37    30    35   1
    38    33    36   1
    39     3    37   1
    40     4    38   1
    41     5    39   1
    42     6    40   1
    43     7    41   1
    44     8    42   1
    45    10    43   1
    46    11    44   1
    47    12    45   1
    48    12    46   1
    49    13    47   1
    50    14    48   1
    51    15    49   1
    52    16    50   1
    53    17    51   1
    54    18    52   1
    55    19    53   1
    56    19    54   1
    57    20    55   1
    58    21    56   1
    59    24    57   1
    60    25    58   1
    61    26    59   1
    62    27    60   1
    63    28    61   1
    64    29    62   1
    65    30    63   1
    66    30    64   1
    67    31    65   1
    68    32    66   1
    69    35    67   1
    70    36    68   1
    71    36    69   1
    72    36    70   1
@<TRIPOS>SUBSTRUCTURE
     1  MOL      1

