@<TRIPOS>MOLECULE
1u33_ligand_017
    70    72
SMALL
GAST_HUCK
****
This file was generated by PARSER (from files_GN.cpp)

@<TRIPOS>ATOM
      1 CA1         4.5963   13.6318   40.1714 C.2         1 MOL       0.1322
      2 NA1         3.6681   12.7085   39.8436 N.2         1 MOL      -0.2068
      3 OA7         2.9056   12.7824   38.7853 O.3         1 MOL      -0.3046
      4 CA2         5.4098   13.4192   41.3932 C.3         1 MOL       0.1504
      5 OA2         4.5323   13.1048   42.4769 O.3         1 MOL      -0.3713
      6 CA3         6.2891   14.6491   41.7727 C.3         1 MOL       0.1237
      7 OA3         7.3100   14.2485   42.6909 O.3         1 MOL      -0.3840
      8 CA4         6.9244   15.3033   40.5144 C.3         1 MOL       0.1169
      9 OA4         7.6456   16.5162   40.8139 O.3         1 MOL      -0.3402
     10 CA5         5.8056   15.6871   39.4925 C.3         1 MOL       0.0902
     11 NA5         4.7846   14.6932   39.3538 N.pl3       1 MOL      -0.2990
     12 CA6         6.3801   15.9962   38.0844 C.3         1 MOL       0.0694
     13 OA6         5.3957   16.5760   37.2314 O.3         1 MOL      -0.3927
     14 CB1         8.9261   16.5323   41.4780 C.3         1 MOL       0.1884
     15 CB2         9.7574   17.6393   40.7718 C.3         1 MOL       0.1341
     16 CB3        11.2066   17.7420   41.3385 C.3         1 MOL       0.1144
     17 CB4        11.9095   16.3464   41.3876 C.3         1 MOL       0.1184
     18 CB5        10.9812   15.2559   42.0304 C.3         1 MOL       0.1134
     19 CB6        11.0040   15.1813   43.5864 C.3         1 MOL       0.0730
     20 OB2         9.8421   17.3706   39.3693 O.3         1 MOL      -0.3841
     21 OB3        11.2068   18.3730   42.6216 O.3         1 MOL      -0.3864
     22 OB4        12.2201   15.8703   40.0546 O.3         1 MOL      -0.3401
     23 OB5         9.6464   15.2720   41.4574 O.3         1 MOL      -0.3405
     24 OB6        10.7495   16.4276   44.2231 O.3         1 MOL      -0.3924
     25 CD1        13.3172   16.4674   39.3248 C.3         1 MOL       0.1884
     26 CD2        13.2561   16.0054   37.8411 C.3         1 MOL       0.1341
     27 CD3        13.7036   14.5257   37.6939 C.3         1 MOL       0.1143
     28 CD4        15.0874   14.2967   38.3680 C.3         1 MOL       0.1150
     29 CD5        15.0328   14.7909   39.8481 C.3         1 MOL       0.1133
     30 CD6        16.3993   14.6777   40.5708 C.3         1 MOL       0.0730
     31 OD2        11.9418   16.1876   37.3101 O.3         1 MOL      -0.3841
     32 OD3        13.7551   14.1855   36.3089 O.3         1 MOL      -0.3864
     33 OD4        15.4369   12.8940   38.3740 O.3         1 MOL      -0.3745
     34 OD5        14.6047   16.1658   39.9136 O.3         1 MOL      -0.3405
     35 OD6        17.4315   15.3956   39.9024 O.3         1 MOL      -0.3924
     36 CD7        16.0885   12.3697   37.2065 C.3         1 MOL       0.0370
     37 H1          2.4502   11.9085   38.7525 H           1 MOL       0.2523
     38 H2          6.0548   12.5529   41.2124 H           1 MOL       0.0843
     39 H3          5.0956   12.6667   43.1470 H           1 MOL       0.2137
     40 H4          5.6624   15.3931   42.2745 H           1 MOL       0.0674
     41 H5          7.0153   13.3937   43.0741 H           1 MOL       0.2103
     42 H6          7.5944   14.5750   40.0402 H           1 MOL       0.0650
     43 H7          5.3064   16.5968   39.8527 H           1 MOL       0.0603
     44 H8          4.1764   14.7897   38.6029 H           1 MOL       0.1812
     45 H9          6.7416   15.0815   37.6136 H           1 MOL       0.0581
     46 H10         7.2075   16.6975   38.1502 H           1 MOL       0.0581
     47 H11         5.1421   17.4207   37.6627 H           1 MOL       0.2095
     48 H12         8.7321   16.8284   42.5124 H           1 MOL       0.0938
     49 H13         9.2632   18.6043   40.8935 H           1 MOL       0.0671
     50 H14        11.7807   18.4100   40.6854 H           1 MOL       0.0648
     51 H15        12.8313   16.4181   41.9759 H           1 MOL       0.0651
     52 H16        11.3830   14.2781   41.7235 H           1 MOL       0.0647
     53 H17        11.9874   14.8165   43.9057 H           1 MOL       0.0584
     54 H18        10.2535   14.4673   43.9292 H           1 MOL       0.0584
     55 H19         9.0706   17.8312   38.9773 H           1 MOL       0.2101
     56 H20        10.8082   19.2518   42.4560 H           1 MOL       0.2100
     57 H21        11.3186   16.4348   45.0315 H           1 MOL       0.2095
     58 H22        13.2057   17.5610   39.3303 H           1 MOL       0.0938
     59 H23        13.9367   16.6355   37.2595 H           1 MOL       0.0671
     60 H24        12.9617   13.8747   38.1748 H           1 MOL       0.0648
     61 H25        15.8373   14.8935   37.8415 H           1 MOL       0.0649
     62 H26        14.3220   14.1714   40.4069 H           1 MOL       0.0647
     63 H27        16.7003   13.6331   40.6311 H           1 MOL       0.0584
     64 H28        16.3145   15.0595   41.5853 H           1 MOL       0.0584
     65 H29        11.3554   15.6402   37.8698 H           1 MOL       0.2101
     66 H30        12.8358   13.9145   36.0731 H           1 MOL       0.2100
     67 H31        17.4999   16.2716   40.3469 H           1 MOL       0.2095
     68 H32        16.3247   11.3180   37.3904 H           1 MOL       0.0524
     69 H33        17.0226   12.9014   37.0088 H           1 MOL       0.0524
     70 H34        15.4437   12.4240   36.3292 H           1 MOL       0.0524
@<TRIPOS>BOND
     1     1     2   2
     2     1     4   1
     3     1    11   1
     4     2     3   1
     5     4     5   1
     6     4     6   1
     7     6     7   1
     8     6     8   1
     9     8     9   1
    10     8    10   1
    11     9    14   1
    12    10    11   1
    13    10    12   1
    14    12    13   1
    15    14    15   1
    16    14    23   1
    17    15    16   1
    18    15    20   1
    19    16    17   1
    20    16    21   1
    21    17    18   1
    22    17    22   1
    23    18    19   1
    24    18    23   1
    25    19    24   1
    26    22    25   1
    27    25    26   1
    28    25    34   1
    29    26    27   1
    30    26    31   1
    31    27    28   1
    32    27    32   1
    33    28    29   1
    34    28    33   1
    35    29    30   1
    36    29    34   1
    37    30    35   1
    38    33    36   1
    39     3    37   1
    40     4    38   1
    41     5    39   1
    42     6    40   1
    43     7    41   1
    44     8    42   1
    45    10    43   1
    46    11    44   1
    47    12    45   1
    48    12    46   1
    49    13    47   1
    50    14    48   1
    51    15    49   1
    52    16    50   1
    53    17    51   1
    54    18    52   1
    55    19    53   1
    56    19    54   1
    57    20    55   1
    58    21    56   1
    59    24    57   1
    60    25    58   1
    61    26    59   1
    62    27    60   1
    63    28    61   1
    64    29    62   1
    65    30    63   1
    66    30    64   1
    67    31    65   1
    68    32    66   1
    69    35    67   1
    70    36    68   1
    71    36    69   1
    72    36    70   1
@<TRIPOS>SUBSTRUCTURE
     1  MOL      1

