@<TRIPOS>MOLECULE
1u33_ligand_077
    70    72
SMALL
GAST_HUCK
****
This file was generated by PARSER (from files_GN.cpp)

@<TRIPOS>ATOM
      1 CA1         3.1612   14.3887   36.8205 C.2         1 MOL       0.1322
      2 NA1         3.2354   14.3112   35.4728 N.2         1 MOL      -0.2068
      3 OA7         3.1450   13.2068   34.7947 O.3         1 MOL      -0.3046
      4 CA2         3.2958   15.7267   37.4516 C.3         1 MOL       0.1504
      5 OA2         4.6228   16.1948   37.2022 O.3         1 MOL      -0.3713
      6 CA3         2.9985   15.7365   38.9796 C.3         1 MOL       0.1237
      7 OA3         1.6024   15.8905   39.2186 O.3         1 MOL      -0.3840
      8 CA4         3.5239   14.4441   39.6720 C.3         1 MOL       0.1169
      9 OA4         4.9719   14.5460   39.6427 O.3         1 MOL      -0.3402
     10 CA5         2.9446   13.1638   38.9715 C.3         1 MOL       0.0902
     11 NA5         3.0062   13.2527   37.5444 N.pl3       1 MOL      -0.2990
     12 CA6         1.4970   12.7740   39.3785 C.3         1 MOL       0.0694
     13 OA6         1.3726   12.5921   40.7841 O.3         1 MOL      -0.3927
     14 CB1         5.8709   13.4760   40.0268 C.3         1 MOL       0.1884
     15 CB2         5.9505   13.0996   41.5379 C.3         1 MOL       0.1341
     16 CB3         6.5937   14.2537   42.3638 C.3         1 MOL       0.1144
     17 CB4         7.9752   14.6652   41.7698 C.3         1 MOL       0.1184
     18 CB5         7.8204   14.9439   40.2417 C.3         1 MOL       0.1134
     19 CB6         9.1684   15.2175   39.5273 C.3         1 MOL       0.0730
     20 OB2         4.6929   12.6907   42.0777 O.3         1 MOL      -0.3841
     21 OB3         6.7289   13.8177   43.7190 O.3         1 MOL      -0.3864
     22 OB4         8.4907   15.8846   42.3563 O.3         1 MOL      -0.3401
     23 OB5         7.1908   13.8318   39.5626 O.3         1 MOL      -0.3405
     24 OB6         9.8501   14.0157   39.1647 O.3         1 MOL      -0.3924
     25 CD1         9.0123   15.8677   43.7086 C.3         1 MOL       0.1884
     26 CD2         9.3386   17.3144   44.1430 C.3         1 MOL       0.1341
     27 CD3        10.6152   17.8567   43.4369 C.3         1 MOL       0.1143
     28 CD4        11.8170   16.8645   43.4908 C.3         1 MOL       0.1150
     29 CD5        11.3468   15.4207   43.1309 C.3         1 MOL       0.1133
     30 CD6        12.4334   14.3475   43.3808 C.3         1 MOL       0.0730
     31 OD2         8.2073   18.1448   43.8591 O.3         1 MOL      -0.3841
     32 OD3        11.0000   19.0651   44.1055 O.3         1 MOL      -0.3864
     33 OD4        12.8674   17.1891   42.5460 O.3         1 MOL      -0.3745
     34 OD5        10.1691   15.0179   43.8718 O.3         1 MOL      -0.3405
     35 OD6        12.2191   13.6500   44.6113 O.3         1 MOL      -0.3924
     36 CD7        13.1774   18.5684   42.2994 C.3         1 MOL       0.0370
     37 H1          3.2992   13.4667   33.8584 H           1 MOL       0.2523
     38 H2          2.6068   16.4165   36.9570 H           1 MOL       0.0843
     39 H3          4.6165   17.1348   37.4832 H           1 MOL       0.2137
     40 H4          3.4816   16.6020   39.4385 H           1 MOL       0.0674
     41 H5          1.3924   16.8079   38.9367 H           1 MOL       0.2103
     42 H6          3.2000   14.4827   40.7168 H           1 MOL       0.0650
     43 H7          3.5548   12.3088   39.2509 H           1 MOL       0.0603
     44 H8          2.9063   12.4244   37.0475 H           1 MOL       0.1812
     45 H9          1.2296   11.8308   38.8997 H           1 MOL       0.0581
     46 H10         0.7751   13.5224   39.0520 H           1 MOL       0.0581
     47 H11         0.5280   12.1045   40.8996 H           1 MOL       0.2095
     48 H12         5.6187   12.5752   39.4554 H           1 MOL       0.0938
     49 H13         6.6013   12.2199   41.6148 H           1 MOL       0.0671
     50 H14         5.9114   15.1139   42.3526 H           1 MOL       0.0648
     51 H15         8.6753   13.8387   41.9137 H           1 MOL       0.0651
     52 H16         7.2028   15.8494   40.1148 H           1 MOL       0.0647
     53 H17         9.8299   15.8260   40.1574 H           1 MOL       0.0584
     54 H18         8.9759   15.7868   38.6079 H           1 MOL       0.0584
     55 H19         4.2614   13.5358   42.3466 H           1 MOL       0.2101
     56 H20         5.8195   13.6003   44.0222 H           1 MOL       0.2100
     57 H21        10.0417   13.5595   40.0125 H           1 MOL       0.2095
     58 H22         8.2471   15.5007   44.3887 H           1 MOL       0.0938
     59 H23         9.5123   17.3216   45.2198 H           1 MOL       0.0671
     60 H24        10.3849   18.0843   42.3895 H           1 MOL       0.0648
     61 H25        12.2301   16.8498   44.5066 H           1 MOL       0.0649
     62 H26        11.1137   15.3987   42.0638 H           1 MOL       0.0647
     63 H27        13.4383   14.7838   43.3919 H           1 MOL       0.0584
     64 H28        12.4102   13.6069   42.5744 H           1 MOL       0.0584
     65 H29         8.5524   19.0542   43.7689 H           1 MOL       0.2101
     66 H30        10.5747   19.7841   43.5911 H           1 MOL       0.2100
     67 H31        12.3338   14.3045   45.3297 H           1 MOL       0.2095
     68 H32        14.1527   18.6201   41.8077 H           1 MOL       0.0524
     69 H33        13.2225   19.1453   43.2269 H           1 MOL       0.0524
     70 H34        12.4340   19.0161   41.6302 H           1 MOL       0.0524
@<TRIPOS>BOND
     1     1     2   2
     2     1     4   1
     3     1    11   1
     4     2     3   1
     5     4     5   1
     6     4     6   1
     7     6     7   1
     8     6     8   1
     9     8     9   1
    10     8    10   1
    11     9    14   1
    12    10    11   1
    13    10    12   1
    14    12    13   1
    15    14    15   1
    16    14    23   1
    17    15    16   1
    18    15    20   1
    19    16    17   1
    20    16    21   1
    21    17    18   1
    22    17    22   1
    23    18    19   1
    24    18    23   1
    25    19    24   1
    26    22    25   1
    27    25    26   1
    28    25    34   1
    29    26    27   1
    30    26    31   1
    31    27    28   1
    32    27    32   1
    33    28    29   1
    34    28    33   1
    35    29    30   1
    36    29    34   1
    37    30    35   1
    38    33    36   1
    39     3    37   1
    40     4    38   1
    41     5    39   1
    42     6    40   1
    43     7    41   1
    44     8    42   1
    45    10    43   1
    46    11    44   1
    47    12    45   1
    48    12    46   1
    49    13    47   1
    50    14    48   1
    51    15    49   1
    52    16    50   1
    53    17    51   1
    54    18    52   1
    55    19    53   1
    56    19    54   1
    57    20    55   1
    58    21    56   1
    59    24    57   1
    60    25    58   1
    61    26    59   1
    62    27    60   1
    63    28    61   1
    64    29    62   1
    65    30    63   1
    66    30    64   1
    67    31    65   1
    68    32    66   1
    69    35    67   1
    70    36    68   1
    71    36    69   1
    72    36    70   1
@<TRIPOS>SUBSTRUCTURE
     1  MOL      1

