@<TRIPOS>MOLECULE
1u33_ligand_011
    70    72
SMALL
GAST_HUCK
****
This file was generated by PARSER (from files_GN.cpp)

@<TRIPOS>ATOM
      1 CA1         9.3691   15.0150   43.0252 C.2         1 MOL       0.1322
      2 NA1         8.3163   14.9755   43.8660 N.2         1 MOL      -0.2068
      3 OA7         8.4482   14.8388   45.1555 O.3         1 MOL      -0.3046
      4 CA2         9.1414   15.1550   41.5661 C.3         1 MOL       0.1504
      5 OA2         9.3749   13.8737   40.9713 O.3         1 MOL      -0.3713
      6 CA3        10.1085   16.2211   40.9611 C.3         1 MOL       0.1237
      7 OA3         9.4747   17.4990   41.0601 O.3         1 MOL      -0.3840
      8 CA4        11.5313   16.2770   41.6322 C.3         1 MOL       0.1169
      9 OA4        12.5639   16.2303   40.6248 O.3         1 MOL      -0.3402
     10 CA5        11.7711   15.0828   42.6212 C.3         1 MOL       0.0902
     11 NA5        10.6396   14.9691   43.4920 N.pl3       1 MOL      -0.2990
     12 CA6        13.0847   15.1891   43.4409 C.3         1 MOL       0.0694
     13 OA6        14.1935   14.6661   42.7065 O.3         1 MOL      -0.3927
     14 CB1        13.4253   17.3707   40.3608 C.3         1 MOL       0.1884
     15 CB2        13.1663   17.9831   38.9600 C.3         1 MOL       0.1341
     16 CB3        13.5232   16.9653   37.8335 C.3         1 MOL       0.1144
     17 CB4        14.9551   16.3583   38.0216 C.3         1 MOL       0.1184
     18 CB5        15.1887   15.9199   39.5025 C.3         1 MOL       0.1134
     19 CB6        16.6621   15.5261   39.7750 C.3         1 MOL       0.0730
     20 OB2        11.8126   18.4195   38.8733 O.3         1 MOL      -0.3841
     21 OB3        13.4356   17.6226   36.5667 O.3         1 MOL      -0.3864
     22 OB4        15.1812   15.1690   37.2397 O.3         1 MOL      -0.3401
     23 OB5        14.8069   16.9546   40.4391 O.3         1 MOL      -0.3405
     24 OB6        16.9844   15.5868   41.1656 O.3         1 MOL      -0.3924
     25 CD1        15.2207   15.2143   35.7976 C.3         1 MOL       0.1884
     26 CD2        14.2560   14.1161   35.2750 C.3         1 MOL       0.1341
     27 CD3        14.8306   12.7079   35.5868 C.3         1 MOL       0.1143
     28 CD4        16.2517   12.5674   34.9604 C.3         1 MOL       0.1150
     29 CD5        17.1916   13.7281   35.4402 C.3         1 MOL       0.1133
     30 CD6        18.5283   13.7556   34.6470 C.3         1 MOL       0.0730
     31 OD2        12.9556   14.2478   35.8432 O.3         1 MOL      -0.3841
     32 OD3        13.9544   11.7024   35.0667 O.3         1 MOL      -0.3864
     33 OD4        16.7963   11.2312   35.1097 O.3         1 MOL      -0.3745
     34 OD5        16.5636   15.0277   35.2736 O.3         1 MOL      -0.3405
     35 OD6        19.6254   14.0577   35.5059 O.3         1 MOL      -0.3924
     36 CD7        17.1776   10.7398   36.4068 C.3         1 MOL       0.0370
     37 H1          8.0603   15.6493   45.5460 H           1 MOL       0.2523
     38 H2          8.1008   15.4245   41.3535 H           1 MOL       0.0843
     39 H3          9.0866   13.9663   40.0367 H           1 MOL       0.2137
     40 H4         10.2163   16.0155   39.8932 H           1 MOL       0.0674
     41 H5         10.0725   18.1317   40.6114 H           1 MOL       0.2103
     42 H6         11.6019   17.1875   42.2315 H           1 MOL       0.0650
     43 H7         11.8292   14.1558   42.0429 H           1 MOL       0.0603
     44 H8         10.7785   14.9204   44.4500 H           1 MOL       0.1812
     45 H9         12.9932   14.6038   44.3604 H           1 MOL       0.0581
     46 H10        13.2970   16.2275   43.7140 H           1 MOL       0.0581
     47 H11        14.8353   14.3426   43.3792 H           1 MOL       0.2095
     48 H12        13.2985   18.1512   41.1178 H           1 MOL       0.0938
     49 H13        13.8019   18.8639   38.8617 H           1 MOL       0.0671
     50 H14        12.7810   16.1566   37.8558 H           1 MOL       0.0648
     51 H15        15.6925   17.1176   37.7619 H           1 MOL       0.0651
     52 H16        14.5871   15.0259   39.7084 H           1 MOL       0.0647
     53 H17        17.3402   16.1941   39.2354 H           1 MOL       0.0584
     54 H18        16.8327   14.5002   39.4393 H           1 MOL       0.0584
     55 H19        11.7722   19.0296   38.1077 H           1 MOL       0.2101
     56 H20        12.6803   18.2465   36.6334 H           1 MOL       0.2100
     57 H21        17.6349   16.3169   41.2182 H           1 MOL       0.2095
     58 H22        14.8686   16.1796   35.4219 H           1 MOL       0.0938
     59 H23        14.1500   14.2287   34.1960 H           1 MOL       0.0671
     60 H24        14.8894   12.5771   36.6768 H           1 MOL       0.0648
     61 H25        16.1269   12.6954   33.8758 H           1 MOL       0.0649
     62 H26        17.4044   13.6039   36.5062 H           1 MOL       0.0647
     63 H27        18.4770   14.5117   33.8480 H           1 MOL       0.0584
     64 H28        18.7347   12.7815   34.1900 H           1 MOL       0.0584
     65 H29        13.0507   14.0113   36.7896 H           1 MOL       0.2101
     66 H30        14.0111   10.9652   35.7163 H           1 MOL       0.2100
     67 H31        20.3355   14.3700   34.9017 H           1 MOL       0.2095
     68 H32        17.4517    9.6895   36.2975 H           1 MOL       0.0524
     69 H33        16.3571   10.8064   37.1228 H           1 MOL       0.0524
     70 H34        18.0470   11.2859   36.7841 H           1 MOL       0.0524
@<TRIPOS>BOND
     1     1     2   2
     2     1     4   1
     3     1    11   1
     4     2     3   1
     5     4     5   1
     6     4     6   1
     7     6     7   1
     8     6     8   1
     9     8     9   1
    10     8    10   1
    11     9    14   1
    12    10    11   1
    13    10    12   1
    14    12    13   1
    15    14    15   1
    16    14    23   1
    17    15    16   1
    18    15    20   1
    19    16    17   1
    20    16    21   1
    21    17    18   1
    22    17    22   1
    23    18    19   1
    24    18    23   1
    25    19    24   1
    26    22    25   1
    27    25    26   1
    28    25    34   1
    29    26    27   1
    30    26    31   1
    31    27    28   1
    32    27    32   1
    33    28    29   1
    34    28    33   1
    35    29    30   1
    36    29    34   1
    37    30    35   1
    38    33    36   1
    39     3    37   1
    40     4    38   1
    41     5    39   1
    42     6    40   1
    43     7    41   1
    44     8    42   1
    45    10    43   1
    46    11    44   1
    47    12    45   1
    48    12    46   1
    49    13    47   1
    50    14    48   1
    51    15    49   1
    52    16    50   1
    53    17    51   1
    54    18    52   1
    55    19    53   1
    56    19    54   1
    57    20    55   1
    58    21    56   1
    59    24    57   1
    60    25    58   1
    61    26    59   1
    62    27    60   1
    63    28    61   1
    64    29    62   1
    65    30    63   1
    66    30    64   1
    67    31    65   1
    68    32    66   1
    69    35    67   1
    70    36    68   1
    71    36    69   1
    72    36    70   1
@<TRIPOS>SUBSTRUCTURE
     1  MOL      1

