@<TRIPOS>MOLECULE
1u33_ligand_022
    70    72
SMALL
GAST_HUCK
****
This file was generated by PARSER (from files_GN.cpp)

@<TRIPOS>ATOM
      1 CA1        13.9976   16.0079   41.6538 C.2         1 MOL       0.1322
      2 NA1        15.2339   16.1457   41.1374 N.2         1 MOL      -0.2068
      3 OA7        15.5144   16.8212   40.0627 O.3         1 MOL      -0.3046
      4 CA2        13.8230   15.2392   42.9115 C.3         1 MOL       0.1504
      5 OA2        14.6376   14.0600   42.8951 O.3         1 MOL      -0.3713
      6 CA3        12.3476   14.8029   43.1191 C.3         1 MOL       0.1237
      7 OA3        12.1893   14.1795   44.3928 O.3         1 MOL      -0.3840
      8 CA4        11.3585   15.9873   42.9543 C.3         1 MOL       0.1169
      9 OA4        10.0427   15.4036   43.0787 O.3         1 MOL      -0.3402
     10 CA5        11.6152   16.7224   41.5887 C.3         1 MOL       0.0902
     11 NA5        12.9487   16.6208   41.0591 N.pl3       1 MOL      -0.2990
     12 CA6        11.2759   18.2404   41.6177 C.3         1 MOL       0.0694
     13 OA6        12.4057   19.0539   41.9272 O.3         1 MOL      -0.3927
     14 CB1         8.8695   16.2351   43.1764 C.3         1 MOL       0.1884
     15 CB2         7.7050   15.4539   43.8415 C.3         1 MOL       0.1341
     16 CB3         7.1345   14.3642   42.8927 C.3         1 MOL       0.1144
     17 CB4         6.7721   14.9727   41.5090 C.3         1 MOL       0.1184
     18 CB5         8.0194   15.7109   40.9408 C.3         1 MOL       0.1134
     19 CB6         7.7769   16.3799   39.5615 C.3         1 MOL       0.0730
     20 OB2         8.1140   14.8474   45.0700 O.3         1 MOL      -0.3841
     21 OB3         5.9735   13.7899   43.4913 O.3         1 MOL      -0.3864
     22 OB4         6.3736   13.9723   40.5397 O.3         1 MOL      -0.3401
     23 OB5         8.4476   16.7256   41.8803 O.3         1 MOL      -0.3405
     24 OB6         6.4711   16.9629   39.4761 O.3         1 MOL      -0.3924
     25 CD1         4.9875   13.8705   40.1249 C.3         1 MOL       0.1884
     26 CD2         4.9688   13.3153   38.6706 C.3         1 MOL       0.1341
     27 CD3         3.5313   13.2887   38.0905 C.3         1 MOL       0.1143
     28 CD4         2.7663   14.6421   38.2902 C.3         1 MOL       0.1150
     29 CD5         2.9536   15.2285   39.7364 C.3         1 MOL       0.1133
     30 CD6         1.9329   14.7397   40.8109 C.3         1 MOL       0.0730
     31 OD2         5.8036   14.1121   37.8254 O.3         1 MOL      -0.3841
     32 OD3         2.8269   12.1687   38.6434 O.3         1 MOL      -0.3864
     33 OD4         3.2976   15.5661   37.3049 O.3         1 MOL      -0.3745
     34 OD5         4.3298   15.1580   40.1698 O.3         1 MOL      -0.3405
     35 OD6         2.1219   13.4083   41.2741 O.3         1 MOL      -0.3924
     36 CD7         2.4352   16.6365   36.8655 C.3         1 MOL       0.0370
     37 H1         16.4248   17.1515   40.1996 H           1 MOL       0.2523
     38 H2         14.1382   15.8689   43.7557 H           1 MOL       0.0843
     39 H3         15.4992   14.3306   43.2717 H           1 MOL       0.2137
     40 H4         12.1089   14.0400   42.3626 H           1 MOL       0.0674
     41 H5         12.4330   14.8611   45.0566 H           1 MOL       0.2103
     42 H6         11.5367   16.6769   43.7870 H           1 MOL       0.0650
     43 H7         10.9836   16.2459   40.8388 H           1 MOL       0.0603
     44 H8         13.1285   17.0770   40.2207 H           1 MOL       0.1812
     45 H9         10.5052   18.4689   42.3562 H           1 MOL       0.0581
     46 H10        10.8975   18.5466   40.6350 H           1 MOL       0.0581
     47 H11        12.1020   19.9648   41.7109 H           1 MOL       0.2095
     48 H12         9.0890   17.0986   43.8112 H           1 MOL       0.0938
     49 H13         6.9019   16.1634   44.0778 H           1 MOL       0.0671
     50 H14         7.8785   13.5662   42.7627 H           1 MOL       0.0648
     51 H15         5.9918   15.7224   41.6724 H           1 MOL       0.0651
     52 H16         8.8304   14.9800   40.7999 H           1 MOL       0.0647
     53 H17         7.8607   15.6354   38.7617 H           1 MOL       0.0584
     54 H18         8.5417   17.1367   39.3892 H           1 MOL       0.0584
     55 H19         8.1881   15.5908   45.7034 H           1 MOL       0.2101
     56 H20         5.7794   12.9870   42.9601 H           1 MOL       0.2100
     57 H21         6.6067   17.7909   38.9718 H           1 MOL       0.2095
     58 H22         4.4999   13.1671   40.8013 H           1 MOL       0.0938
     59 H23         5.3752   12.3019   38.6663 H           1 MOL       0.0671
     60 H24         3.5985   13.0874   37.0141 H           1 MOL       0.0648
     61 H25         1.7009   14.4488   38.0991 H           1 MOL       0.0649
     62 H26         2.7530   16.3066   39.6635 H           1 MOL       0.0647
     63 H27         0.9188   14.8230   40.4075 H           1 MOL       0.0584
     64 H28         2.0003   15.3986   41.6835 H           1 MOL       0.0584
     65 H29         6.7168   13.8193   38.0191 H           1 MOL       0.2101
     66 H30         1.9924   12.1117   38.1302 H           1 MOL       0.2100
     67 H31         2.2615   12.8700   40.4642 H           1 MOL       0.2095
     68 H32         2.9857   17.2328   36.1412 H           1 MOL       0.0524
     69 H33         2.1373   17.2864   37.6933 H           1 MOL       0.0524
     70 H34         1.5407   16.2423   36.3741 H           1 MOL       0.0524
@<TRIPOS>BOND
     1     1     2   2
     2     1     4   1
     3     1    11   1
     4     2     3   1
     5     4     5   1
     6     4     6   1
     7     6     7   1
     8     6     8   1
     9     8     9   1
    10     8    10   1
    11     9    14   1
    12    10    11   1
    13    10    12   1
    14    12    13   1
    15    14    15   1
    16    14    23   1
    17    15    16   1
    18    15    20   1
    19    16    17   1
    20    16    21   1
    21    17    18   1
    22    17    22   1
    23    18    19   1
    24    18    23   1
    25    19    24   1
    26    22    25   1
    27    25    26   1
    28    25    34   1
    29    26    27   1
    30    26    31   1
    31    27    28   1
    32    27    32   1
    33    28    29   1
    34    28    33   1
    35    29    30   1
    36    29    34   1
    37    30    35   1
    38    33    36   1
    39     3    37   1
    40     4    38   1
    41     5    39   1
    42     6    40   1
    43     7    41   1
    44     8    42   1
    45    10    43   1
    46    11    44   1
    47    12    45   1
    48    12    46   1
    49    13    47   1
    50    14    48   1
    51    15    49   1
    52    16    50   1
    53    17    51   1
    54    18    52   1
    55    19    53   1
    56    19    54   1
    57    20    55   1
    58    21    56   1
    59    24    57   1
    60    25    58   1
    61    26    59   1
    62    27    60   1
    63    28    61   1
    64    29    62   1
    65    30    63   1
    66    30    64   1
    67    31    65   1
    68    32    66   1
    69    35    67   1
    70    36    68   1
    71    36    69   1
    72    36    70   1
@<TRIPOS>SUBSTRUCTURE
     1  MOL      1

