@<TRIPOS>MOLECULE
1u33_ligand_005
    70    72
SMALL
GAST_HUCK
****
This file was generated by PARSER (from files_GN.cpp)

@<TRIPOS>ATOM
      1 CA1         3.3918   12.8860   40.3960 C.2         1 MOL       0.1322
      2 NA1         2.1001   12.5361   40.5714 N.2         1 MOL      -0.2068
      3 OA7         1.2726   12.2918   39.5967 O.3         1 MOL      -0.3046
      4 CA2         4.2198   13.1287   41.6006 C.3         1 MOL       0.1504
      5 OA2         3.4215   13.7242   42.6278 O.3         1 MOL      -0.3713
      6 CA3         5.4508   14.0188   41.2976 C.3         1 MOL       0.1237
      7 OA3         6.2950   13.9788   42.4427 O.3         1 MOL      -0.3840
      8 CA4         6.2247   13.5721   40.0171 C.3         1 MOL       0.1169
      9 OA4         7.2939   14.4388   39.5464 O.3         1 MOL      -0.3402
     10 CA5         5.2261   13.4462   38.8108 C.3         1 MOL       0.0902
     11 NA5         3.9066   12.9817   39.1453 N.pl3       1 MOL      -0.2990
     12 CA6         5.7914   12.6116   37.6287 C.3         1 MOL       0.0694
     13 OA6         6.1360   11.2843   38.0211 O.3         1 MOL      -0.3927
     14 CB1         7.9366   15.4359   40.3638 C.3         1 MOL       0.1884
     15 CB2         8.5823   16.4953   39.4356 C.3         1 MOL       0.1341
     16 CB3         9.1545   17.6516   40.3070 C.3         1 MOL       0.1144
     17 CB4        10.1126   17.1341   41.4187 C.3         1 MOL       0.1184
     18 CB5         9.6073   15.8276   42.1261 C.3         1 MOL       0.1134
     19 CB6         8.7096   16.0966   43.3686 C.3         1 MOL       0.0730
     20 OB2         9.5975   15.9034   38.6141 O.3         1 MOL      -0.3841
     21 OB3         8.0836   18.3885   40.8919 O.3         1 MOL      -0.3864
     22 OB4        11.3852   16.9124   40.7689 O.3         1 MOL      -0.3401
     23 OB5         8.9641   14.8868   41.2196 O.3         1 MOL      -0.3405
     24 OB6         9.3895   16.8857   44.3381 O.3         1 MOL      -0.3924
     25 CD1        12.5746   17.5215   41.3310 C.3         1 MOL       0.1884
     26 CD2        13.6265   17.7557   40.2196 C.3         1 MOL       0.1341
     27 CD3        14.2476   16.4152   39.7480 C.3         1 MOL       0.1143
     28 CD4        14.7733   15.5923   40.9603 C.3         1 MOL       0.1150
     29 CD5        13.6331   15.4223   42.0161 C.3         1 MOL       0.1133
     30 CD6        14.0789   14.6555   43.2946 C.3         1 MOL       0.0730
     31 OD2        13.0096   18.4429   39.1316 O.3         1 MOL      -0.3841
     32 OD3        15.3030   16.6925   38.8258 O.3         1 MOL      -0.3864
     33 OD4        15.1989   14.2698   40.5491 O.3         1 MOL      -0.3745
     34 OD5        13.0997   16.7096   42.4046 O.3         1 MOL      -0.3405
     35 OD6        14.3106   15.5132   44.4153 O.3         1 MOL      -0.3924
     36 CD7        16.4912   14.1537   39.9317 C.3         1 MOL       0.0370
     37 H1          0.4633   11.9565   40.0505 H           1 MOL       0.2523
     38 H2          4.5516   12.1548   41.9689 H           1 MOL       0.0843
     39 H3          3.9871   14.4183   43.0415 H           1 MOL       0.2137
     40 H4          5.1083   15.0419   41.1522 H           1 MOL       0.0674
     41 H5          6.4400   13.0321   42.6471 H           1 MOL       0.2103
     42 H6          6.6660   12.5880   40.2205 H           1 MOL       0.0650
     43 H7          5.0599   14.4540   38.4183 H           1 MOL       0.0603
     44 H8          3.2949   12.8192   38.4062 H           1 MOL       0.1812
     45 H9          6.6816   13.0983   37.2248 H           1 MOL       0.0581
     46 H10         5.0501   12.5481   36.8259 H           1 MOL       0.0581
     47 H11         6.6764   10.9298   37.2683 H           1 MOL       0.2095
     48 H12         7.1703   15.9408   40.9575 H           1 MOL       0.0938
     49 H13         7.8138   16.8911   38.7598 H           1 MOL       0.0671
     50 H14         9.6923   18.3511   39.6518 H           1 MOL       0.0648
     51 H15        10.1973   17.9283   42.1636 H           1 MOL       0.0651
     52 H16        10.4866   15.3063   42.5065 H           1 MOL       0.0647
     53 H17         8.4350   15.1508   43.8417 H           1 MOL       0.0584
     54 H18         7.7968   16.6206   43.0797 H           1 MOL       0.0584
     55 H19        10.2518   15.5378   39.2242 H           1 MOL       0.2101
     56 H20         7.6148   18.7778   40.1243 H           1 MOL       0.2100
     57 H21         8.6920   17.1389   44.9879 H           1 MOL       0.2095
     58 H22        12.3446   18.5107   41.7497 H           1 MOL       0.0938
     59 H23        14.4207   18.3915   40.6207 H           1 MOL       0.0671
     60 H24        13.4871   15.8268   39.2191 H           1 MOL       0.0648
     61 H25        15.5910   16.1421   41.4386 H           1 MOL       0.0649
     62 H26        12.8367   14.8334   41.5497 H           1 MOL       0.0647
     63 H27        15.0013   14.0990   43.1146 H           1 MOL       0.0584
     64 H28        13.3120   13.9212   43.5723 H           1 MOL       0.0584
     65 H29        13.7548   18.8645   38.6335 H           1 MOL       0.2101
     66 H30        14.8583   17.0244   38.0093 H           1 MOL       0.2100
     67 H31        13.6586   15.2368   45.1056 H           1 MOL       0.2095
     68 H32        16.7350   13.0961   39.8442 H           1 MOL       0.0524
     69 H33        17.2628   14.6328   40.5383 H           1 MOL       0.0524
     70 H34        16.4882   14.5878   38.9320 H           1 MOL       0.0524
@<TRIPOS>BOND
     1     1     2   2
     2     1     4   1
     3     1    11   1
     4     2     3   1
     5     4     5   1
     6     4     6   1
     7     6     7   1
     8     6     8   1
     9     8     9   1
    10     8    10   1
    11     9    14   1
    12    10    11   1
    13    10    12   1
    14    12    13   1
    15    14    15   1
    16    14    23   1
    17    15    16   1
    18    15    20   1
    19    16    17   1
    20    16    21   1
    21    17    18   1
    22    17    22   1
    23    18    19   1
    24    18    23   1
    25    19    24   1
    26    22    25   1
    27    25    26   1
    28    25    34   1
    29    26    27   1
    30    26    31   1
    31    27    28   1
    32    27    32   1
    33    28    29   1
    34    28    33   1
    35    29    30   1
    36    29    34   1
    37    30    35   1
    38    33    36   1
    39     3    37   1
    40     4    38   1
    41     5    39   1
    42     6    40   1
    43     7    41   1
    44     8    42   1
    45    10    43   1
    46    11    44   1
    47    12    45   1
    48    12    46   1
    49    13    47   1
    50    14    48   1
    51    15    49   1
    52    16    50   1
    53    17    51   1
    54    18    52   1
    55    19    53   1
    56    19    54   1
    57    20    55   1
    58    21    56   1
    59    24    57   1
    60    25    58   1
    61    26    59   1
    62    27    60   1
    63    28    61   1
    64    29    62   1
    65    30    63   1
    66    30    64   1
    67    31    65   1
    68    32    66   1
    69    35    67   1
    70    36    68   1
    71    36    69   1
    72    36    70   1
@<TRIPOS>SUBSTRUCTURE
     1  MOL      1

