@<TRIPOS>MOLECULE
1u33_ligand_063
    70    72
SMALL
GAST_HUCK
****
This file was generated by PARSER (from files_GN.cpp)

@<TRIPOS>ATOM
      1 CA1        13.0910   17.2591   34.1210 C.2         1 MOL       0.1322
      2 NA1        12.7629   17.9801   33.0294 N.2         1 MOL      -0.2068
      3 OA7        13.4454   18.9986   32.5799 O.3         1 MOL      -0.3046
      4 CA2        14.2826   17.5452   34.9587 C.3         1 MOL       0.1504
      5 OA2        15.3868   16.8377   34.3886 O.3         1 MOL      -0.3713
      6 CA3        14.0898   17.1634   36.4684 C.3         1 MOL       0.1237
      7 OA3        13.9030   18.3528   37.2438 O.3         1 MOL      -0.3840
      8 CA4        12.9161   16.1673   36.7960 C.3         1 MOL       0.1169
      9 OA4        13.1890   15.2372   37.8791 O.3         1 MOL      -0.3402
     10 CA5        12.5243   15.3420   35.5317 C.3         1 MOL       0.0902
     11 NA5        12.2801   16.2264   34.4306 N.pl3       1 MOL      -0.2990
     12 CA6        11.2773   14.4437   35.7404 C.3         1 MOL       0.0694
     13 OA6        11.0886   13.5841   34.6161 O.3         1 MOL      -0.3927
     14 CB1        13.7656   15.7135   39.1183 C.3         1 MOL       0.1884
     15 CB2        13.7566   14.6178   40.2191 C.3         1 MOL       0.1341
     16 CB3        12.3570   14.4744   40.8739 C.3         1 MOL       0.1144
     17 CB4        11.7815   15.8419   41.3432 C.3         1 MOL       0.1184
     18 CB5        11.8101   16.8240   40.1228 C.3         1 MOL       0.1134
     19 CB6        11.3928   18.2879   40.4038 C.3         1 MOL       0.0730
     20 OB2        14.2072   13.3724   39.6848 O.3         1 MOL      -0.3841
     21 OB3        12.4316   13.5638   41.9700 O.3         1 MOL      -0.3864
     22 OB4        10.4685   15.5477   41.8702 O.3         1 MOL      -0.3401
     23 OB5        13.1536   16.9259   39.6003 O.3         1 MOL      -0.3405
     24 OB6        12.3661   18.9446   41.2162 O.3         1 MOL      -0.3924
     25 CD1         9.7803   16.4927   42.7243 C.3         1 MOL       0.1884
     26 CD2         9.4520   15.9007   44.1248 C.3         1 MOL       0.1341
     27 CD3         8.3350   14.8238   44.0348 C.3         1 MOL       0.1143
     28 CD4         7.0954   15.3456   43.2527 C.3         1 MOL       0.1150
     29 CD5         7.5640   15.8833   41.8651 C.3         1 MOL       0.1133
     30 CD6         6.4175   16.5042   41.0217 C.3         1 MOL       0.0730
     31 OD2        10.6317   15.3574   44.7224 O.3         1 MOL      -0.3841
     32 OD3         7.9692   14.4197   45.3510 O.3         1 MOL      -0.3864
     33 OD4         6.1396   14.2837   43.0256 O.3         1 MOL      -0.3745
     34 OD5         8.5750   16.9045   42.0446 O.3         1 MOL      -0.3405
     35 OD6         6.5415   16.1373   39.6486 O.3         1 MOL      -0.3924
     36 CD7         5.1529   14.0490   44.0498 C.3         1 MOL       0.0370
     37 H1         12.8839   19.3688   31.8638 H           1 MOL       0.2523
     38 H2         14.5337   18.6062   34.8880 H           1 MOL       0.0843
     39 H3         15.1936   15.8870   34.5329 H           1 MOL       0.2137
     40 H4         15.0312   16.7263   36.8069 H           1 MOL       0.0674
     41 H5         13.0277   18.7105   36.9740 H           1 MOL       0.2103
     42 H6         12.0330   16.7530   37.0678 H           1 MOL       0.0650
     43 H7         13.3657   14.6917   35.2677 H           1 MOL       0.0603
     44 H8         11.4886   16.0952   33.8883 H           1 MOL       0.1812
     45 H9         10.3803   15.0597   35.8689 H           1 MOL       0.0581
     46 H10        11.4021   13.8221   36.6311 H           1 MOL       0.0581
     47 H11        10.2172   13.1597   34.7603 H           1 MOL       0.2095
     48 H12        14.8149   15.9482   38.9250 H           1 MOL       0.0938
     49 H13        14.4700   14.9126   40.9935 H           1 MOL       0.0671
     50 H14        11.6765   14.0349   40.1378 H           1 MOL       0.0648
     51 H15        12.4240   16.2299   42.1413 H           1 MOL       0.0651
     52 H16        11.1420   16.4382   39.3455 H           1 MOL       0.0647
     53 H17        10.4130   18.3290   40.8810 H           1 MOL       0.0584
     54 H18        11.3107   18.8319   39.4562 H           1 MOL       0.0584
     55 H19        13.4390   12.9915   39.2067 H           1 MOL       0.2101
     56 H20        12.9966   14.0004   42.6432 H           1 MOL       0.2100
     57 H21        12.0306   19.8587   41.3204 H           1 MOL       0.2095
     58 H22        10.3779   17.3928   42.8936 H           1 MOL       0.0938
     59 H23         9.0992   16.7117   44.7700 H           1 MOL       0.0671
     60 H24         8.7321   13.9417   43.5257 H           1 MOL       0.0648
     61 H25         6.6528   16.1821   43.8025 H           1 MOL       0.0649
     62 H26         7.9810   15.0448   41.2917 H           1 MOL       0.0647
     63 H27         6.4484   17.5943   41.0900 H           1 MOL       0.0584
     64 H28         5.4363   16.1675   41.3675 H           1 MOL       0.0584
     65 H29        11.0549   16.1022   45.2118 H           1 MOL       0.2101
     66 H30         7.7155   15.2452   45.8170 H           1 MOL       0.2100
     67 H31         6.3498   15.1765   39.6211 H           1 MOL       0.2095
     68 H32         4.5076   13.2335   43.7185 H           1 MOL       0.0524
     69 H33         4.5313   14.9356   44.2041 H           1 MOL       0.0524
     70 H34         5.6109   13.7573   44.9971 H           1 MOL       0.0524
@<TRIPOS>BOND
     1     1     2   2
     2     1     4   1
     3     1    11   1
     4     2     3   1
     5     4     5   1
     6     4     6   1
     7     6     7   1
     8     6     8   1
     9     8     9   1
    10     8    10   1
    11     9    14   1
    12    10    11   1
    13    10    12   1
    14    12    13   1
    15    14    15   1
    16    14    23   1
    17    15    16   1
    18    15    20   1
    19    16    17   1
    20    16    21   1
    21    17    18   1
    22    17    22   1
    23    18    19   1
    24    18    23   1
    25    19    24   1
    26    22    25   1
    27    25    26   1
    28    25    34   1
    29    26    27   1
    30    26    31   1
    31    27    28   1
    32    27    32   1
    33    28    29   1
    34    28    33   1
    35    29    30   1
    36    29    34   1
    37    30    35   1
    38    33    36   1
    39     3    37   1
    40     4    38   1
    41     5    39   1
    42     6    40   1
    43     7    41   1
    44     8    42   1
    45    10    43   1
    46    11    44   1
    47    12    45   1
    48    12    46   1
    49    13    47   1
    50    14    48   1
    51    15    49   1
    52    16    50   1
    53    17    51   1
    54    18    52   1
    55    19    53   1
    56    19    54   1
    57    20    55   1
    58    21    56   1
    59    24    57   1
    60    25    58   1
    61    26    59   1
    62    27    60   1
    63    28    61   1
    64    29    62   1
    65    30    63   1
    66    30    64   1
    67    31    65   1
    68    32    66   1
    69    35    67   1
    70    36    68   1
    71    36    69   1
    72    36    70   1
@<TRIPOS>SUBSTRUCTURE
     1  MOL      1

