@<TRIPOS>MOLECULE
1u33_ligand_000
    70    72
SMALL
GAST_HUCK
****
This file was generated by PARSER (from files_GN.cpp)

@<TRIPOS>ATOM
      1 CA1        11.3569   15.2429   43.5009 C.2         1 MOL       0.1322
      2 NA1        11.2864   14.0185   44.0616 N.2         1 MOL      -0.2068
      3 OA7        11.9160   13.5765   45.1130 O.3         1 MOL      -0.3046
      4 CA2        10.5524   15.4307   42.2721 C.3         1 MOL       0.1504
      5 OA2        11.1831   14.7185   41.2077 O.3         1 MOL      -0.3713
      6 CA3        10.3628   16.9297   41.9249 C.3         1 MOL       0.1237
      7 OA3         9.3754   17.4686   42.8013 O.3         1 MOL      -0.3840
      8 CA4        11.6971   17.7224   42.0248 C.3         1 MOL       0.1169
      9 OA4        12.5377   17.2299   40.9581 O.3         1 MOL      -0.3402
     10 CA5        12.4175   17.4938   43.4039 C.3         1 MOL       0.0902
     11 NA5        12.1525   16.2176   44.0080 N.pl3       1 MOL      -0.2990
     12 CA6        12.2029   18.6452   44.4281 C.3         1 MOL       0.0694
     13 OA6        10.8401   18.9939   44.6294 O.3         1 MOL      -0.3927
     14 CB1        13.5418   18.0859   40.3690 C.3         1 MOL       0.1884
     15 CB2        13.1720   18.3447   38.8878 C.3         1 MOL       0.1341
     16 CB3        13.2589   17.0259   38.0620 C.3         1 MOL       0.1144
     17 CB4        14.6285   16.2987   38.2466 C.3         1 MOL       0.1184
     18 CB5        14.9589   16.1834   39.7721 C.3         1 MOL       0.1134
     19 CB6        16.3700   15.6158   40.0716 C.3         1 MOL       0.0730
     20 OB2        11.8585   18.8986   38.8251 O.3         1 MOL      -0.3841
     21 OB3        13.0708   17.3413   36.6843 O.3         1 MOL      -0.3864
     22 OB4        14.7328   14.9503   37.7342 O.3         1 MOL      -0.3401
     23 OB5        14.8363   17.4562   40.4444 O.3         1 MOL      -0.3405
     24 OB6        17.3291   16.0051   39.0938 O.3         1 MOL      -0.3924
     25 CD1        14.0276   14.4694   36.5742 C.3         1 MOL       0.1884
     26 CD2        14.3601   12.9665   36.3883 C.3         1 MOL       0.1341
     27 CD3        15.7859   12.7543   35.7976 C.3         1 MOL       0.1143
     28 CD4        16.0066   13.6282   34.5293 C.3         1 MOL       0.1150
     29 CD5        15.6485   15.1160   34.8456 C.3         1 MOL       0.1133
     30 CD6        15.7336   16.0359   33.6009 C.3         1 MOL       0.0730
     31 OD2        14.2797   12.3105   37.6583 O.3         1 MOL      -0.3841
     32 OD3        15.9677   11.3783   35.4652 O.3         1 MOL      -0.3864
     33 OD4        17.3856   13.5745   34.1012 O.3         1 MOL      -0.3745
     34 OD5        14.3049   15.2192   35.3694 O.3         1 MOL      -0.3405
     35 OD6        14.8108   15.6627   32.5815 O.3         1 MOL      -0.3924
     36 CD7        17.7244   12.5469   33.1540 C.3         1 MOL       0.0370
     37 H1         12.1391   14.3550   45.6562 H           1 MOL       0.2523
     38 H2          9.5636   14.9822   42.4126 H           1 MOL       0.0843
     39 H3         10.5121   14.6687   40.4899 H           1 MOL       0.2137
     40 H4          9.9641   17.0247   40.9096 H           1 MOL       0.0674
     41 H5          9.3657   18.4397   42.6530 H           1 MOL       0.2103
     42 H6         11.4781   18.7881   41.8641 H           1 MOL       0.0650
     43 H7         13.4923   17.4936   43.2095 H           1 MOL       0.0603
     44 H8         12.6131   16.0220   44.8379 H           1 MOL       0.1812
     45 H9         12.7425   19.5389   44.1024 H           1 MOL       0.0581
     46 H10        12.6155   18.3528   45.3950 H           1 MOL       0.0581
     47 H11        10.5745   19.4858   43.8252 H           1 MOL       0.2095
     48 H12        13.6238   19.0469   40.8862 H           1 MOL       0.0938
     49 H13        13.8705   19.0800   38.4746 H           1 MOL       0.0671
     50 H14        12.4525   16.3614   38.3657 H           1 MOL       0.0648
     51 H15        15.3972   16.9080   37.7573 H           1 MOL       0.0651
     52 H16        14.2480   15.4887   40.2328 H           1 MOL       0.0647
     53 H17        16.3468   14.5254   40.1029 H           1 MOL       0.0584
     54 H18        16.7137   15.9696   41.0522 H           1 MOL       0.0584
     55 H19        11.8408   19.4448   38.0108 H           1 MOL       0.2101
     56 H20        12.3975   18.0604   36.6484 H           1 MOL       0.2100
     57 H21        17.3095   16.9834   39.1060 H           1 MOL       0.2095
     58 H22        12.9509   14.5325   36.7649 H           1 MOL       0.0938
     59 H23        13.6212   12.5116   35.7175 H           1 MOL       0.0671
     60 H24        16.5308   13.0232   36.5537 H           1 MOL       0.0648
     61 H25        15.3167   13.2777   33.7496 H           1 MOL       0.0649
     62 H26        16.3516   15.5033   35.5930 H           1 MOL       0.0647
     63 H27        16.7398   15.9959   33.1839 H           1 MOL       0.0584
     64 H28        15.5309   17.0635   33.9007 H           1 MOL       0.0584
     65 H29        14.1249   11.3648   37.4578 H           1 MOL       0.2101
     66 H30        15.4916   10.8631   36.1505 H           1 MOL       0.2100
     67 H31        13.9222   15.8360   32.9587 H           1 MOL       0.2095
     68 H32        18.7824   12.6417   32.9065 H           1 MOL       0.0524
     69 H33        17.1487   12.6596   32.2327 H           1 MOL       0.0524
     70 H34        17.5586   11.5499   33.5629 H           1 MOL       0.0524
@<TRIPOS>BOND
     1     1     2   2
     2     1     4   1
     3     1    11   1
     4     2     3   1
     5     4     5   1
     6     4     6   1
     7     6     7   1
     8     6     8   1
     9     8     9   1
    10     8    10   1
    11     9    14   1
    12    10    11   1
    13    10    12   1
    14    12    13   1
    15    14    15   1
    16    14    23   1
    17    15    16   1
    18    15    20   1
    19    16    17   1
    20    16    21   1
    21    17    18   1
    22    17    22   1
    23    18    19   1
    24    18    23   1
    25    19    24   1
    26    22    25   1
    27    25    26   1
    28    25    34   1
    29    26    27   1
    30    26    31   1
    31    27    28   1
    32    27    32   1
    33    28    29   1
    34    28    33   1
    35    29    30   1
    36    29    34   1
    37    30    35   1
    38    33    36   1
    39     3    37   1
    40     4    38   1
    41     5    39   1
    42     6    40   1
    43     7    41   1
    44     8    42   1
    45    10    43   1
    46    11    44   1
    47    12    45   1
    48    12    46   1
    49    13    47   1
    50    14    48   1
    51    15    49   1
    52    16    50   1
    53    17    51   1
    54    18    52   1
    55    19    53   1
    56    19    54   1
    57    20    55   1
    58    21    56   1
    59    24    57   1
    60    25    58   1
    61    26    59   1
    62    27    60   1
    63    28    61   1
    64    29    62   1
    65    30    63   1
    66    30    64   1
    67    31    65   1
    68    32    66   1
    69    35    67   1
    70    36    68   1
    71    36    69   1
    72    36    70   1
@<TRIPOS>SUBSTRUCTURE
     1  MOL      1

