@<TRIPOS>MOLECULE
1u33_ligand_061
    70    72
SMALL
GAST_HUCK
****
This file was generated by PARSER (from files_GN.cpp)

@<TRIPOS>ATOM
      1 CA1         3.0526   13.9783   40.3260 C.2         1 MOL       0.1322
      2 NA1         1.8556   13.3909   40.1209 N.2         1 MOL      -0.2068
      3 OA7         0.8002   13.5678   40.8665 O.3         1 MOL      -0.3046
      4 CA2         3.3577   14.8572   41.4880 C.3         1 MOL       0.1504
      5 OA2         3.4599   16.2221   41.0796 O.3         1 MOL      -0.3713
      6 CA3         4.6721   14.3526   42.1517 C.3         1 MOL       0.1237
      7 OA3         4.3427   13.1644   42.8811 O.3         1 MOL      -0.3840
      8 CA4         5.8478   14.0648   41.1394 C.3         1 MOL       0.1169
      9 OA4         6.9114   15.0261   41.3541 O.3         1 MOL      -0.3402
     10 CA5         5.3946   14.1080   39.6360 C.3         1 MOL       0.0902
     11 NA5         4.0533   13.6242   39.4882 N.pl3       1 MOL      -0.2990
     12 CA6         6.3418   13.3318   38.6805 C.3         1 MOL       0.0694
     13 OA6         5.7846   13.1913   37.3736 O.3         1 MOL      -0.3927
     14 CB1         7.9311   14.6669   42.3203 C.3         1 MOL       0.1884
     15 CB2         8.5527   15.9006   43.0296 C.3         1 MOL       0.1341
     16 CB3         9.5318   16.6794   42.1086 C.3         1 MOL       0.1144
     17 CB4        10.5482   15.7316   41.4096 C.3         1 MOL       0.1184
     18 CB5         9.7604   14.5883   40.6939 C.3         1 MOL       0.1134
     19 CB6        10.6339   13.5344   39.9764 C.3         1 MOL       0.0730
     20 OB2         7.4977   16.7476   43.4914 O.3         1 MOL      -0.3841
     21 OB3        10.2566   17.6476   42.8742 O.3         1 MOL      -0.3864
     22 OB4        11.3246   16.5423   40.4940 O.3         1 MOL      -0.3401
     23 OB5         8.9523   13.8834   41.6693 O.3         1 MOL      -0.3405
     24 OB6        11.8013   13.2112   40.7248 O.3         1 MOL      -0.3924
     25 CD1        12.7539   16.3340   40.3784 C.3         1 MOL       0.1884
     26 CD2        13.4579   17.6446   39.9328 C.3         1 MOL       0.1341
     27 CD3        13.0784   17.9838   38.4662 C.3         1 MOL       0.1143
     28 CD4        13.4156   16.7951   37.5251 C.3         1 MOL       0.1150
     29 CD5        12.7388   15.4884   38.0606 C.3         1 MOL       0.1133
     30 CD6        13.1231   14.2241   37.2374 C.3         1 MOL       0.0730
     31 OD2        13.1189   18.7360   40.7994 O.3         1 MOL      -0.3841
     32 OD3        13.7690   19.1536   38.0481 O.3         1 MOL      -0.3864
     33 OD4        12.8774   17.0718   36.2110 O.3         1 MOL      -0.3745
     34 OD5        13.0642   15.2695   39.4571 O.3         1 MOL      -0.3405
     35 OD6        14.1722   13.4744   37.8421 O.3         1 MOL      -0.3924
     36 CD7        13.8312   17.3878   35.1808 C.3         1 MOL       0.0370
     37 H1          0.2500   12.7744   40.7162 H           1 MOL       0.2523
     38 H2          2.5518   14.8248   42.2277 H           1 MOL       0.0843
     39 H3          4.3950   16.3744   40.8316 H           1 MOL       0.2137
     40 H4          4.9862   15.0881   42.8970 H           1 MOL       0.0674
     41 H5          5.1893   12.8627   43.2826 H           1 MOL       0.2103
     42 H6          6.2148   13.0470   41.3205 H           1 MOL       0.0650
     43 H7          5.4039   15.1502   39.3037 H           1 MOL       0.0603
     44 H8          3.8625   12.9793   38.7913 H           1 MOL       0.1812
     45 H9          6.5350   12.3310   39.0721 H           1 MOL       0.0581
     46 H10         7.2961   13.8546   38.5916 H           1 MOL       0.0581
     47 H11         5.7590   14.0973   36.9981 H           1 MOL       0.2095
     48 H12         7.4975   14.0394   43.1082 H           1 MOL       0.0938
     49 H13         9.1036   15.5400   43.9072 H           1 MOL       0.0671
     50 H14         8.9583   17.2099   41.3436 H           1 MOL       0.0648
     51 H15        11.1717   15.2932   42.1932 H           1 MOL       0.0651
     52 H16         9.1125   15.0422   39.9378 H           1 MOL       0.0647
     53 H17        10.9189   13.9076   38.9955 H           1 MOL       0.0584
     54 H18        10.0493   12.6256   39.8210 H           1 MOL       0.0584
     55 H19         7.7987   17.1211   44.3515 H           1 MOL       0.2101
     56 H20         9.7937   18.5061   42.7344 H           1 MOL       0.2100
     57 H21        12.4100   12.7893   40.0820 H           1 MOL       0.2095
     58 H22        13.1877   16.0687   41.3474 H           1 MOL       0.0938
     59 H23        14.5495   17.5050   39.9949 H           1 MOL       0.0671
     60 H24        12.0071   18.1992   38.4266 H           1 MOL       0.0648
     61 H25        14.5023   16.6394   37.5169 H           1 MOL       0.0649
     62 H26        11.6472   15.6190   37.9719 H           1 MOL       0.0647
     63 H27        13.4298   14.4879   36.2250 H           1 MOL       0.0584
     64 H28        12.2549   13.5628   37.1500 H           1 MOL       0.0584
     65 H29        13.6134   18.5731   41.6303 H           1 MOL       0.2101
     66 H30        13.1646   19.5700   37.3951 H           1 MOL       0.2100
     67 H31        13.7027   12.7348   38.3021 H           1 MOL       0.2095
     68 H32        13.2885   17.5751   34.2564 H           1 MOL       0.0524
     69 H33        14.5119   16.5489   35.0187 H           1 MOL       0.0524
     70 H34        14.3976   18.2840   35.4362 H           1 MOL       0.0524
@<TRIPOS>BOND
     1     1     2   2
     2     1     4   1
     3     1    11   1
     4     2     3   1
     5     4     5   1
     6     4     6   1
     7     6     7   1
     8     6     8   1
     9     8     9   1
    10     8    10   1
    11     9    14   1
    12    10    11   1
    13    10    12   1
    14    12    13   1
    15    14    15   1
    16    14    23   1
    17    15    16   1
    18    15    20   1
    19    16    17   1
    20    16    21   1
    21    17    18   1
    22    17    22   1
    23    18    19   1
    24    18    23   1
    25    19    24   1
    26    22    25   1
    27    25    26   1
    28    25    34   1
    29    26    27   1
    30    26    31   1
    31    27    28   1
    32    27    32   1
    33    28    29   1
    34    28    33   1
    35    29    30   1
    36    29    34   1
    37    30    35   1
    38    33    36   1
    39     3    37   1
    40     4    38   1
    41     5    39   1
    42     6    40   1
    43     7    41   1
    44     8    42   1
    45    10    43   1
    46    11    44   1
    47    12    45   1
    48    12    46   1
    49    13    47   1
    50    14    48   1
    51    15    49   1
    52    16    50   1
    53    17    51   1
    54    18    52   1
    55    19    53   1
    56    19    54   1
    57    20    55   1
    58    21    56   1
    59    24    57   1
    60    25    58   1
    61    26    59   1
    62    27    60   1
    63    28    61   1
    64    29    62   1
    65    30    63   1
    66    30    64   1
    67    31    65   1
    68    32    66   1
    69    35    67   1
    70    36    68   1
    71    36    69   1
    72    36    70   1
@<TRIPOS>SUBSTRUCTURE
     1  MOL      1

