@<TRIPOS>MOLECULE
1u33_ligand_059
    70    72
SMALL
GAST_HUCK
****
This file was generated by PARSER (from files_GN.cpp)

@<TRIPOS>ATOM
      1 CA1        14.8068   15.4516   35.6769 C.2         1 MOL       0.1322
      2 NA1        16.1320   15.3709   35.4533 N.2         1 MOL      -0.2068
      3 OA7        16.7328   14.3953   34.8341 O.3         1 MOL      -0.3046
      4 CA2        13.8608   14.3894   35.2287 C.3         1 MOL       0.1504
      5 OA2        14.0916   14.0853   33.8472 O.3         1 MOL      -0.3713
      6 CA3        12.3591   14.7859   35.3992 C.3         1 MOL       0.1237
      7 OA3        11.5587   13.6061   35.3053 O.3         1 MOL      -0.3840
      8 CA4        12.1314   15.5239   36.7493 C.3         1 MOL       0.1169
      9 OA4        10.7964   16.0453   36.8929 O.3         1 MOL      -0.3402
     10 CA5        13.0638   16.7783   36.8164 C.3         1 MOL       0.0902
     11 NA5        14.4014   16.5277   36.3827 N.pl3       1 MOL      -0.2990
     12 CA6        13.0766   17.4080   38.2402 C.3         1 MOL       0.0694
     13 OA6        13.4294   18.7925   38.1758 O.3         1 MOL      -0.3927
     14 CB1         9.7457   15.3731   37.6049 C.3         1 MOL       0.1884
     15 CB2         8.9286   16.5077   38.2831 C.3         1 MOL       0.1341
     16 CB3         7.8316   15.9489   39.2339 C.3         1 MOL       0.1144
     17 CB4         8.4121   14.9008   40.2274 C.3         1 MOL       0.1184
     18 CB5         9.2580   13.8206   39.4753 C.3         1 MOL       0.1134
     19 CB6         8.4139   12.6639   38.8403 C.3         1 MOL       0.0730
     20 OB2         9.8220   17.3521   39.0220 O.3         1 MOL      -0.3841
     21 OB3         6.7443   15.4133   38.4773 O.3         1 MOL      -0.3864
     22 OB4         9.2072   15.6264   41.1957 O.3         1 MOL      -0.3401
     23 OB5        10.2300   14.4132   38.5770 O.3         1 MOL      -0.3405
     24 OB6         8.0207   12.8785   37.4924 O.3         1 MOL      -0.3924
     25 CD1         9.3602   15.1195   42.5338 C.3         1 MOL       0.1884
     26 CD2         9.0225   16.2498   43.5419 C.3         1 MOL       0.1341
     27 CD3        10.1252   17.3456   43.5244 C.3         1 MOL       0.1143
     28 CD4        11.5359   16.7184   43.7411 C.3         1 MOL       0.1150
     29 CD5        11.7817   15.5543   42.7217 C.3         1 MOL       0.1133
     30 CD6        13.0595   14.7254   43.0290 C.3         1 MOL       0.0730
     31 OD2         7.7422   16.7946   43.2290 O.3         1 MOL      -0.3841
     32 OD3         9.8607   18.3362   44.5251 O.3         1 MOL      -0.3864
     33 OD4        12.5998   17.6962   43.7929 O.3         1 MOL      -0.3745
     34 OD5        10.6865   14.6109   42.7633 O.3         1 MOL      -0.3405
     35 OD6        14.0070   15.4127   43.8609 O.3         1 MOL      -0.3924
     36 CD7        12.3833   19.0576   43.3792 C.3         1 MOL       0.0370
     37 H1         17.6686   14.6862   34.7829 H           1 MOL       0.2523
     38 H2         14.0631   13.4828   35.8149 H           1 MOL       0.0843
     39 H3         13.6302   13.2312   33.6808 H           1 MOL       0.2137
     40 H4         12.0691   15.4610   34.5782 H           1 MOL       0.0674
     41 H5         10.6324   13.9257   35.3282 H           1 MOL       0.2103
     42 H6         12.3787   14.8493   37.5751 H           1 MOL       0.0650
     43 H7         12.6647   17.5257   36.1237 H           1 MOL       0.0603
     44 H8         15.0690   17.1924   36.5915 H           1 MOL       0.1812
     45 H9         13.7978   16.8918   38.8867 H           1 MOL       0.0581
     46 H10        12.0870   17.3470   38.7121 H           1 MOL       0.0581
     47 H11        12.7169   19.2002   37.6339 H           1 MOL       0.2095
     48 H12         9.1310   14.8703   36.8698 H           1 MOL       0.0938
     49 H13         8.4542   17.1171   37.5027 H           1 MOL       0.0671
     50 H14         7.4135   16.7893   39.8005 H           1 MOL       0.0648
     51 H15         7.5708   14.4390   40.7563 H           1 MOL       0.0651
     52 H16         9.8519   13.3149   40.2387 H           1 MOL       0.0647
     53 H17         7.5051   12.5061   39.4347 H           1 MOL       0.0584
     54 H18         8.9969   11.7387   38.8727 H           1 MOL       0.0584
     55 H19         9.3642   18.2220   39.0358 H           1 MOL       0.2101
     56 H20         6.0516   15.2203   39.1445 H           1 MOL       0.2100
     57 H21         7.6289   12.0215   37.2068 H           1 MOL       0.2095
     58 H22         8.6641   14.2959   42.7041 H           1 MOL       0.0938
     59 H23         8.9623   15.8142   44.5445 H           1 MOL       0.0671
     60 H24        10.0900   17.8407   42.5487 H           1 MOL       0.0648
     61 H25        11.5157   16.2724   44.7362 H           1 MOL       0.0649
     62 H26        11.8622   15.9687   41.7099 H           1 MOL       0.0647
     63 H27        13.5607   14.4748   42.0821 H           1 MOL       0.0584
     64 H28        12.7845   13.7842   43.5258 H           1 MOL       0.0584
     65 H29         7.5124   17.3611   43.9912 H           1 MOL       0.2101
     66 H30         9.4029   19.0639   44.0530 H           1 MOL       0.2100
     67 H31        14.6542   14.7136   44.1095 H           1 MOL       0.2095
     68 H32        13.3382   19.5668   43.4296 H           1 MOL       0.0524
     69 H33        11.6918   19.5754   44.0480 H           1 MOL       0.0524
     70 H34        12.0163   19.1194   42.3544 H           1 MOL       0.0524
@<TRIPOS>BOND
     1     1     2   2
     2     1     4   1
     3     1    11   1
     4     2     3   1
     5     4     5   1
     6     4     6   1
     7     6     7   1
     8     6     8   1
     9     8     9   1
    10     8    10   1
    11     9    14   1
    12    10    11   1
    13    10    12   1
    14    12    13   1
    15    14    15   1
    16    14    23   1
    17    15    16   1
    18    15    20   1
    19    16    17   1
    20    16    21   1
    21    17    18   1
    22    17    22   1
    23    18    19   1
    24    18    23   1
    25    19    24   1
    26    22    25   1
    27    25    26   1
    28    25    34   1
    29    26    27   1
    30    26    31   1
    31    27    28   1
    32    27    32   1
    33    28    29   1
    34    28    33   1
    35    29    30   1
    36    29    34   1
    37    30    35   1
    38    33    36   1
    39     3    37   1
    40     4    38   1
    41     5    39   1
    42     6    40   1
    43     7    41   1
    44     8    42   1
    45    10    43   1
    46    11    44   1
    47    12    45   1
    48    12    46   1
    49    13    47   1
    50    14    48   1
    51    15    49   1
    52    16    50   1
    53    17    51   1
    54    18    52   1
    55    19    53   1
    56    19    54   1
    57    20    55   1
    58    21    56   1
    59    24    57   1
    60    25    58   1
    61    26    59   1
    62    27    60   1
    63    28    61   1
    64    29    62   1
    65    30    63   1
    66    30    64   1
    67    31    65   1
    68    32    66   1
    69    35    67   1
    70    36    68   1
    71    36    69   1
    72    36    70   1
@<TRIPOS>SUBSTRUCTURE
     1  MOL      1

