@<TRIPOS>MOLECULE
1u33_ligand_016
    70    72
SMALL
GAST_HUCK
****
This file was generated by PARSER (from files_GN.cpp)

@<TRIPOS>ATOM
      1 CA1         7.1979   13.1335   39.1391 C.2         1 MOL       0.1322
      2 NA1         7.4619   12.1866   38.2129 N.2         1 MOL      -0.2068
      3 OA7         7.1048   10.9345   38.3091 O.3         1 MOL      -0.3046
      4 CA2         7.6553   14.5126   38.8811 C.3         1 MOL       0.1504
      5 OA2         9.0634   14.5745   39.1193 O.3         1 MOL      -0.3713
      6 CA3         6.9006   15.5479   39.7541 C.3         1 MOL       0.1237
      7 OA3         5.5794   15.7251   39.2305 O.3         1 MOL      -0.3840
      8 CA4         6.8431   15.1184   41.2526 C.3         1 MOL       0.1169
      9 OA4         8.1683   15.1266   41.8317 O.3         1 MOL      -0.3402
     10 CA5         6.2613   13.6674   41.3868 C.3         1 MOL       0.0902
     11 NA5         6.5533   12.7963   40.2806 N.pl3       1 MOL      -0.2990
     12 CA6         4.7255   13.6322   41.6550 C.3         1 MOL       0.0694
     13 OA6         4.4454   13.7151   43.0580 O.3         1 MOL      -0.3927
     14 CB1         8.5156   16.1152   42.8248 C.3         1 MOL       0.1884
     15 CB2         8.7262   17.5414   42.2575 C.3         1 MOL       0.1341
     16 CB3         9.8969   17.5194   41.2289 C.3         1 MOL       0.1144
     17 CB4        11.1996   16.9701   41.8806 C.3         1 MOL       0.1184
     18 CB5        10.9223   15.6451   42.6705 C.3         1 MOL       0.1134
     19 CB6        12.1113   15.2983   43.6079 C.3         1 MOL       0.0730
     20 OB2         7.5345   18.0693   41.6686 O.3         1 MOL      -0.3841
     21 OB3        10.1170   18.8368   40.7174 O.3         1 MOL      -0.3864
     22 OB4        12.1697   16.6804   40.8454 O.3         1 MOL      -0.3401
     23 OB5         9.7313   15.7312   43.4912 O.3         1 MOL      -0.3405
     24 OB6        11.7696   14.2467   44.5118 O.3         1 MOL      -0.3924
     25 CD1        13.2960   17.5640   40.6212 C.3         1 MOL       0.1884
     26 CD2        13.2445   18.1560   39.1852 C.3         1 MOL       0.1341
     27 CD3        13.5400   17.0694   38.1115 C.3         1 MOL       0.1143
     28 CD4        14.8359   16.2757   38.4485 C.3         1 MOL       0.1150
     29 CD5        14.7644   15.7423   39.9156 C.3         1 MOL       0.1133
     30 CD6        16.0430   14.9770   40.3617 C.3         1 MOL       0.0730
     31 OD2        11.9648   18.7469   38.9495 O.3         1 MOL      -0.3841
     32 OD3        13.6728   17.6846   36.8309 O.3         1 MOL      -0.3864
     33 OD4        14.9751   15.1563   37.5435 O.3         1 MOL      -0.3745
     34 OD5        14.5255   16.8333   40.8360 O.3         1 MOL      -0.3405
     35 OD6        17.2446   15.4813   39.7821 O.3         1 MOL      -0.3924
     36 CD7        16.1402   15.1584   36.6992 C.3         1 MOL       0.0370
     37 H1          7.6451   10.4698   37.6337 H           1 MOL       0.2523
     38 H2          7.4907   14.7588   37.8267 H           1 MOL       0.0843
     39 H3          9.4738   13.9713   38.4641 H           1 MOL       0.2137
     40 H4          7.4064   16.5120   39.6556 H           1 MOL       0.0674
     41 H5          5.1851   16.4447   39.7633 H           1 MOL       0.2103
     42 H6          6.1901   15.8079   41.7839 H           1 MOL       0.0650
     43 H7          6.7259   13.1913   42.2544 H           1 MOL       0.0603
     44 H8          6.2633   11.8745   40.3750 H           1 MOL       0.1812
     45 H9          4.2834   12.6928   41.2880 H           1 MOL       0.0581
     46 H10         4.2226   14.4657   41.1467 H           1 MOL       0.0581
     47 H11         4.9724   12.9905   43.4531 H           1 MOL       0.2095
     48 H12         7.7486   16.1556   43.5946 H           1 MOL       0.0938
     49 H13         9.0119   18.2112   43.0790 H           1 MOL       0.0671
     50 H14         9.6355   16.8832   40.3752 H           1 MOL       0.0648
     51 H15        11.5488   17.7262   42.5931 H           1 MOL       0.0651
     52 H16        10.7992   14.8140   41.9661 H           1 MOL       0.0647
     53 H17        12.3937   16.1791   44.1987 H           1 MOL       0.0584
     54 H18        12.9788   14.9827   43.0202 H           1 MOL       0.0584
     55 H19         6.9846   18.3523   42.4478 H           1 MOL       0.2101
     56 H20         9.3804   18.9828   40.0811 H           1 MOL       0.2100
     57 H21        12.2339   14.4886   45.3435 H           1 MOL       0.2095
     58 H22        13.3023   18.4014   41.3261 H           1 MOL       0.0938
     59 H23        13.9993   18.9453   39.1102 H           1 MOL       0.0671
     60 H24        12.6944   16.3758   38.0692 H           1 MOL       0.0648
     61 H25        15.6841   16.9673   38.3896 H           1 MOL       0.0649
     62 H26        13.9353   15.0251   39.9959 H           1 MOL       0.0647
     63 H27        15.9569   13.9290   40.0689 H           1 MOL       0.0584
     64 H28        16.1348   15.0119   41.4532 H           1 MOL       0.0584
     65 H29        12.0221   19.1955   38.0776 H           1 MOL       0.2101
     66 H30        12.8812   18.2547   36.7275 H           1 MOL       0.2100
     67 H31        17.4170   16.3490   40.2125 H           1 MOL       0.2095
     68 H32        16.0807   14.2967   36.0345 H           1 MOL       0.0524
     69 H33        17.0490   15.0680   37.3025 H           1 MOL       0.0524
     70 H34        16.1936   16.0632   36.0912 H           1 MOL       0.0524
@<TRIPOS>BOND
     1     1     2   2
     2     1     4   1
     3     1    11   1
     4     2     3   1
     5     4     5   1
     6     4     6   1
     7     6     7   1
     8     6     8   1
     9     8     9   1
    10     8    10   1
    11     9    14   1
    12    10    11   1
    13    10    12   1
    14    12    13   1
    15    14    15   1
    16    14    23   1
    17    15    16   1
    18    15    20   1
    19    16    17   1
    20    16    21   1
    21    17    18   1
    22    17    22   1
    23    18    19   1
    24    18    23   1
    25    19    24   1
    26    22    25   1
    27    25    26   1
    28    25    34   1
    29    26    27   1
    30    26    31   1
    31    27    28   1
    32    27    32   1
    33    28    29   1
    34    28    33   1
    35    29    30   1
    36    29    34   1
    37    30    35   1
    38    33    36   1
    39     3    37   1
    40     4    38   1
    41     5    39   1
    42     6    40   1
    43     7    41   1
    44     8    42   1
    45    10    43   1
    46    11    44   1
    47    12    45   1
    48    12    46   1
    49    13    47   1
    50    14    48   1
    51    15    49   1
    52    16    50   1
    53    17    51   1
    54    18    52   1
    55    19    53   1
    56    19    54   1
    57    20    55   1
    58    21    56   1
    59    24    57   1
    60    25    58   1
    61    26    59   1
    62    27    60   1
    63    28    61   1
    64    29    62   1
    65    30    63   1
    66    30    64   1
    67    31    65   1
    68    32    66   1
    69    35    67   1
    70    36    68   1
    71    36    69   1
    72    36    70   1
@<TRIPOS>SUBSTRUCTURE
     1  MOL      1

