@<TRIPOS>MOLECULE
1u33_ligand_009
    70    72
SMALL
GAST_HUCK
****
This file was generated by PARSER (from files_GN.cpp)

@<TRIPOS>ATOM
      1 CA1        12.2705   17.9189   42.8352 C.2         1 MOL       0.1322
      2 NA1        13.1729   18.9200   42.8663 N.2         1 MOL      -0.2068
      3 OA7        13.0441   20.1464   42.4351 O.3         1 MOL      -0.3046
      4 CA2        12.7045   16.5924   43.3531 C.3         1 MOL       0.1504
      5 OA2        13.8024   16.1487   42.5618 O.3         1 MOL      -0.3713
      6 CA3        11.5871   15.4992   43.3859 C.3         1 MOL       0.1237
      7 OA3        10.9620   15.4805   44.6676 O.3         1 MOL      -0.3840
      8 CA4        10.5256   15.6969   42.2693 C.3         1 MOL       0.1169
      9 OA4        11.1449   15.2782   41.0326 O.3         1 MOL      -0.3402
     10 CA5         9.9736   17.1725   42.3324 C.3         1 MOL       0.0902
     11 NA5        11.0255   18.1383   42.3433 N.pl3       1 MOL      -0.2990
     12 CA6         9.0094   17.4839   43.5192 C.3         1 MOL       0.0694
     13 OA6         8.4856   16.3167   44.1628 O.3         1 MOL      -0.3927
     14 CB1        10.6682   15.7245   39.7415 C.3         1 MOL       0.1884
     15 CB2        10.9161   14.6873   38.6201 C.3         1 MOL       0.1341
     16 CB3        12.4250   14.5217   38.3209 C.3         1 MOL       0.1144
     17 CB4        13.1700   15.8756   38.1115 C.3         1 MOL       0.1184
     18 CB5        12.7788   16.8671   39.2607 C.3         1 MOL       0.1134
     19 CB6        13.3090   18.3344   39.1938 C.3         1 MOL       0.0730
     20 OB2        10.3343   13.4395   38.9882 O.3         1 MOL      -0.3841
     21 OB3        12.5966   13.6989   37.1752 O.3         1 MOL      -0.3864
     22 OB4        14.5515   15.4897   38.1650 O.3         1 MOL      -0.3401
     23 OB5        11.3331   16.9474   39.3953 O.3         1 MOL      -0.3405
     24 OB6        13.6610   18.7837   37.8868 O.3         1 MOL      -0.3924
     25 CD1        15.6466   15.8223   37.2693 C.3         1 MOL       0.1884
     26 CD2        15.4369   16.0618   35.7510 C.3         1 MOL       0.1341
     27 CD3        14.9744   14.7860   35.0112 C.3         1 MOL       0.1143
     28 CD4        15.9148   13.5879   35.3106 C.3         1 MOL       0.1150
     29 CD5        16.1183   13.4657   36.8514 C.3         1 MOL       0.1133
     30 CD6        17.1038   12.3304   37.2440 C.3         1 MOL       0.0730
     31 OD2        14.5497   17.1417   35.4661 O.3         1 MOL      -0.3841
     32 OD3        14.9415   15.0167   33.6074 O.3         1 MOL      -0.3864
     33 OD4        15.2908   12.3663   34.8391 O.3         1 MOL      -0.3745
     34 OD5        16.5687   14.7230   37.4325 O.3         1 MOL      -0.3405
     35 OD6        18.3136   12.3414   36.4728 O.3         1 MOL      -0.3924
     36 CD7        15.6454   11.9321   33.5089 C.3         1 MOL       0.0370
     37 H1         12.1070   20.2725   42.1750 H           1 MOL       0.2523
     38 H2         13.0917   16.7330   44.3642 H           1 MOL       0.0843
     39 H3         14.2443   15.4611   43.0980 H           1 MOL       0.2137
     40 H4         12.0376   14.5118   43.2617 H           1 MOL       0.0674
     41 H5         11.6782   15.2590   45.3010 H           1 MOL       0.2103
     42 H6          9.6998   15.0031   42.4264 H           1 MOL       0.0650
     43 H7          9.3908   17.3629   41.4266 H           1 MOL       0.0603
     44 H8         10.7745   19.0481   42.1178 H           1 MOL       0.1812
     45 H9          8.1495   18.0634   43.1541 H           1 MOL       0.0581
     46 H10         9.5165   18.0852   44.2886 H           1 MOL       0.0581
     47 H11         8.0574   16.6824   44.9689 H           1 MOL       0.2095
     48 H12         9.5867   15.9004   39.7607 H           1 MOL       0.0938
     49 H13        10.4101   15.0205   37.7049 H           1 MOL       0.0671
     50 H14        12.8752   13.9947   39.1634 H           1 MOL       0.0648
     51 H15        12.8842   16.2957   37.1463 H           1 MOL       0.0651
     52 H16        13.1832   16.4550   40.1830 H           1 MOL       0.0647
     53 H17        14.2008   18.4568   39.8370 H           1 MOL       0.0584
     54 H18        12.5561   19.0472   39.5738 H           1 MOL       0.0584
     55 H19        10.5261   13.3092   39.9383 H           1 MOL       0.2101
     56 H20        12.0041   14.0665   36.4862 H           1 MOL       0.2100
     57 H21        12.8041   19.0662   37.4965 H           1 MOL       0.2095
     58 H22        16.1267   16.7116   37.6825 H           1 MOL       0.0938
     59 H23        16.4113   16.3405   35.3294 H           1 MOL       0.0671
     60 H24        13.9623   14.5302   35.3279 H           1 MOL       0.0648
     61 H25        16.8977   13.7669   34.8631 H           1 MOL       0.0649
     62 H26        15.1575   13.1753   37.2945 H           1 MOL       0.0647
     63 H27        16.6264   11.3480   37.1292 H           1 MOL       0.0584
     64 H28        17.3809   12.4377   38.3069 H           1 MOL       0.0584
     65 H29        14.8842   17.8842   36.0030 H           1 MOL       0.2101
     66 H30        14.1798   15.6164   33.4679 H           1 MOL       0.2100
     67 H31        18.0604   11.9675   35.6005 H           1 MOL       0.2095
     68 H32        16.7039   11.6419   33.4661 H           1 MOL       0.0524
     69 H33        15.4550   12.7115   32.7562 H           1 MOL       0.0524
     70 H34        15.0312   11.0574   33.2615 H           1 MOL       0.0524
@<TRIPOS>BOND
     1     1     2   2
     2     1     4   1
     3     1    11   1
     4     2     3   1
     5     4     5   1
     6     4     6   1
     7     6     7   1
     8     6     8   1
     9     8     9   1
    10     8    10   1
    11     9    14   1
    12    10    11   1
    13    10    12   1
    14    12    13   1
    15    14    15   1
    16    14    23   1
    17    15    16   1
    18    15    20   1
    19    16    17   1
    20    16    21   1
    21    17    18   1
    22    17    22   1
    23    18    19   1
    24    18    23   1
    25    19    24   1
    26    22    25   1
    27    25    26   1
    28    25    34   1
    29    26    27   1
    30    26    31   1
    31    27    28   1
    32    27    32   1
    33    28    29   1
    34    28    33   1
    35    29    30   1
    36    29    34   1
    37    30    35   1
    38    33    36   1
    39     3    37   1
    40     4    38   1
    41     5    39   1
    42     6    40   1
    43     7    41   1
    44     8    42   1
    45    10    43   1
    46    11    44   1
    47    12    45   1
    48    12    46   1
    49    13    47   1
    50    14    48   1
    51    15    49   1
    52    16    50   1
    53    17    51   1
    54    18    52   1
    55    19    53   1
    56    19    54   1
    57    20    55   1
    58    21    56   1
    59    24    57   1
    60    25    58   1
    61    26    59   1
    62    27    60   1
    63    28    61   1
    64    29    62   1
    65    30    63   1
    66    30    64   1
    67    31    65   1
    68    32    66   1
    69    35    67   1
    70    36    68   1
    71    36    69   1
    72    36    70   1
@<TRIPOS>SUBSTRUCTURE
     1  MOL      1

