@<TRIPOS>MOLECULE
1u33_ligand_062
    70    72
SMALL
GAST_HUCK
****
This file was generated by PARSER (from files_GN.cpp)

@<TRIPOS>ATOM
      1 CA1        16.1638   15.5793   39.4332 C.2         1 MOL       0.1322
      2 NA1        17.3721   15.3424   39.9792 N.2         1 MOL      -0.2068
      3 OA7        17.9063   16.0829   40.9138 O.3         1 MOL      -0.3046
      4 CA2        15.5685   14.5688   38.5189 C.3         1 MOL       0.1504
      5 OA2        16.5163   14.2218   37.5082 O.3         1 MOL      -0.3713
      6 CA3        14.2419   15.0484   37.8516 C.3         1 MOL       0.1237
      7 OA3        13.5452   13.9424   37.2715 O.3         1 MOL      -0.3840
      8 CA4        13.3600   15.8114   38.8786 C.3         1 MOL       0.1169
      9 OA4        12.1376   16.3083   38.2955 O.3         1 MOL      -0.3402
     10 CA5        14.1653   17.0405   39.4212 C.3         1 MOL       0.0902
     11 NA5        15.5091   16.7089   39.7869 N.pl3       1 MOL      -0.2990
     12 CA6        13.4779   17.6746   40.6593 C.3         1 MOL       0.0694
     13 OA6        14.1161   18.9014   41.0164 O.3         1 MOL      -0.3927
     14 CB1        10.8721   15.6112   38.3790 C.3         1 MOL       0.1884
     15 CB2         9.7754   16.7213   38.4957 C.3         1 MOL       0.1341
     16 CB3         8.3911   16.1830   38.9707 C.3         1 MOL       0.1144
     17 CB4         8.5413   15.1896   40.1598 C.3         1 MOL       0.1184
     18 CB5         9.5547   14.0612   39.8039 C.3         1 MOL       0.1134
     19 CB6         9.0552   13.0207   38.7559 C.3         1 MOL       0.0730
     20 OB2        10.1957   17.7434   39.3990 O.3         1 MOL      -0.3841
     21 OB3         7.6885   15.6025   37.8718 O.3         1 MOL      -0.3864
     22 OB4         8.9878   15.9657   41.2948 O.3         1 MOL      -0.3401
     23 OB5        10.8323   14.6576   39.4698 O.3         1 MOL      -0.3405
     24 OB6         7.6700   12.6999   38.8966 O.3         1 MOL      -0.3924
     25 CD1         8.9613   15.3983   42.6267 C.3         1 MOL       0.1884
     26 CD2         8.7045   16.5384   43.6410 C.3         1 MOL       0.1341
     27 CD3         9.9023   17.5260   43.6501 C.3         1 MOL       0.1143
     28 CD4        11.2555   16.8019   43.9136 C.3         1 MOL       0.1150
     29 CD5        11.3887   15.5335   43.0137 C.3         1 MOL       0.1133
     30 CD6        12.5258   14.5795   43.4764 C.3         1 MOL       0.0730
     31 OD2         7.4872   17.2094   43.3070 O.3         1 MOL      -0.3841
     32 OD3         9.6532   18.5074   44.6579 O.3         1 MOL      -0.3864
     33 OD4        12.4009   17.6323   43.6238 O.3         1 MOL      -0.3745
     34 OD5        10.1877   14.7278   42.9909 O.3         1 MOL      -0.3405
     35 OD6        13.7955   15.2310   43.5418 O.3         1 MOL      -0.3924
     36 CD7        12.3382   19.0488   43.8758 C.3         1 MOL       0.0370
     37 H1         18.8316   16.2342   40.6301 H           1 MOL       0.2523
     38 H2         15.3629   13.6719   39.1122 H           1 MOL       0.0843
     39 H3         16.1891   13.3757   37.1332 H           1 MOL       0.2137
     40 H4         14.4864   15.7313   37.0302 H           1 MOL       0.0674
     41 H5         13.3035   13.3380   38.0055 H           1 MOL       0.2103
     42 H6         13.1495   15.1477   39.7209 H           1 MOL       0.0650
     43 H7         14.2190   17.8035   38.6358 H           1 MOL       0.0603
     44 H8         16.0024   17.3496   40.3232 H           1 MOL       0.1812
     45 H9         13.5449   16.9867   41.5089 H           1 MOL       0.0581
     46 H10        12.4206   17.8868   40.4548 H           1 MOL       0.0581
     47 H11        13.4213   19.4102   41.4869 H           1 MOL       0.2095
     48 H12        10.7374   15.0663   37.4385 H           1 MOL       0.0938
     49 H13         9.6578   17.1982   37.5152 H           1 MOL       0.0671
     50 H14         7.7777   17.0275   39.3040 H           1 MOL       0.0648
     51 H15         7.5553   14.7713   40.3922 H           1 MOL       0.0651
     52 H16         9.7233   13.4801   40.7129 H           1 MOL       0.0647
     53 H17         9.6155   12.0956   38.9013 H           1 MOL       0.0584
     54 H18         9.2295   13.3629   37.7335 H           1 MOL       0.0584
     55 H19         9.5255   18.4450   39.2856 H           1 MOL       0.2101
     56 H20         6.7381   15.6547   38.1238 H           1 MOL       0.2100
     57 H21         7.1873   13.4608   38.5151 H           1 MOL       0.2095
     58 H22         8.1402   14.6746   42.7133 H           1 MOL       0.0938
     59 H23         8.5821   16.0919   44.6389 H           1 MOL       0.0671
     60 H24         9.9485   18.0295   42.6799 H           1 MOL       0.0648
     61 H25        11.2752   16.5029   44.9637 H           1 MOL       0.0649
     62 H26        11.6106   15.8484   41.9917 H           1 MOL       0.0647
     63 H27        12.6162   13.7440   42.7748 H           1 MOL       0.0584
     64 H28        12.2935   14.1692   44.4648 H           1 MOL       0.0584
     65 H29         7.3714   17.8509   44.0346 H           1 MOL       0.2101
     66 H30         9.2463   19.2593   44.1786 H           1 MOL       0.2100
     67 H31        14.4065   14.5703   43.9411 H           1 MOL       0.2095
     68 H32        13.3284   19.4705   43.7050 H           1 MOL       0.0524
     69 H33        12.0321   19.2678   44.9045 H           1 MOL       0.0524
     70 H34        11.6587   19.5412   43.1724 H           1 MOL       0.0524
@<TRIPOS>BOND
     1     1     2   2
     2     1     4   1
     3     1    11   1
     4     2     3   1
     5     4     5   1
     6     4     6   1
     7     6     7   1
     8     6     8   1
     9     8     9   1
    10     8    10   1
    11     9    14   1
    12    10    11   1
    13    10    12   1
    14    12    13   1
    15    14    15   1
    16    14    23   1
    17    15    16   1
    18    15    20   1
    19    16    17   1
    20    16    21   1
    21    17    18   1
    22    17    22   1
    23    18    19   1
    24    18    23   1
    25    19    24   1
    26    22    25   1
    27    25    26   1
    28    25    34   1
    29    26    27   1
    30    26    31   1
    31    27    28   1
    32    27    32   1
    33    28    29   1
    34    28    33   1
    35    29    30   1
    36    29    34   1
    37    30    35   1
    38    33    36   1
    39     3    37   1
    40     4    38   1
    41     5    39   1
    42     6    40   1
    43     7    41   1
    44     8    42   1
    45    10    43   1
    46    11    44   1
    47    12    45   1
    48    12    46   1
    49    13    47   1
    50    14    48   1
    51    15    49   1
    52    16    50   1
    53    17    51   1
    54    18    52   1
    55    19    53   1
    56    19    54   1
    57    20    55   1
    58    21    56   1
    59    24    57   1
    60    25    58   1
    61    26    59   1
    62    27    60   1
    63    28    61   1
    64    29    62   1
    65    30    63   1
    66    30    64   1
    67    31    65   1
    68    32    66   1
    69    35    67   1
    70    36    68   1
    71    36    69   1
    72    36    70   1
@<TRIPOS>SUBSTRUCTURE
     1  MOL      1

