@<TRIPOS>MOLECULE
1u33_ligand_052
    70    72
SMALL
GAST_HUCK
****
This file was generated by PARSER (from files_GN.cpp)

@<TRIPOS>ATOM
      1 CA1        10.2863   16.5400   44.1565 C.2         1 MOL       0.1322
      2 NA1         9.6103   16.1968   45.2713 N.2         1 MOL      -0.2068
      3 OA7         8.8173   15.1671   45.3478 O.3         1 MOL      -0.3046
      4 CA2        11.1536   17.7473   44.1711 C.3         1 MOL       0.1504
      5 OA2        10.4628   18.8541   44.7573 O.3         1 MOL      -0.3713
      6 CA3        11.6590   18.1648   42.7629 C.3         1 MOL       0.1237
      7 OA3        12.7117   19.1126   42.9392 O.3         1 MOL      -0.3840
      8 CA4        12.0946   16.9183   41.9381 C.3         1 MOL       0.1169
      9 OA4        12.4251   17.2588   40.5873 O.3         1 MOL      -0.3402
     10 CA5        10.8812   15.9316   41.8309 C.3         1 MOL       0.0902
     11 NA5        10.1973   15.7318   43.0715 N.pl3       1 MOL      -0.2990
     12 CA6        11.2746   14.5476   41.2511 C.3         1 MOL       0.0694
     13 OA6        10.1315   13.8448   40.7727 O.3         1 MOL      -0.3927
     14 CB1        13.6772   17.8801   40.2453 C.3         1 MOL       0.1884
     15 CB2        13.5602   18.2715   38.7582 C.3         1 MOL       0.1341
     16 CB3        13.6371   17.0270   37.8286 C.3         1 MOL       0.1144
     17 CB4        14.8789   16.1293   38.1606 C.3         1 MOL       0.1184
     18 CB5        14.9021   15.8269   39.7007 C.3         1 MOL       0.1134
     19 CB6        16.1407   15.0241   40.1846 C.3         1 MOL       0.0730
     20 OB2        12.3357   18.9908   38.5718 O.3         1 MOL      -0.3841
     21 OB3        13.6779   17.5034   36.4861 O.3         1 MOL      -0.3864
     22 OB4        14.9244   14.8360   37.4896 O.3         1 MOL      -0.3401
     23 OB5        14.8344   17.0463   40.4753 O.3         1 MOL      -0.3405
     24 OB6        17.3652   15.5977   39.7510 O.3         1 MOL      -0.3924
     25 CD1        14.8817   14.6285   36.0575 C.3         1 MOL       0.1884
     26 CD2        15.9891   15.3255   35.2128 C.3         1 MOL       0.1341
     27 CD3        15.7258   15.1555   33.6892 C.3         1 MOL       0.1143
     28 CD4        14.2485   15.4817   33.2956 C.3         1 MOL       0.1150
     29 CD5        13.2180   14.7478   34.2070 C.3         1 MOL       0.1133
     30 CD6        12.9626   13.2560   33.8576 C.3         1 MOL       0.0730
     31 OD2        16.1217   16.7076   35.5223 O.3         1 MOL      -0.3841
     32 OD3        16.1066   13.8377   33.2883 O.3         1 MOL      -0.3864
     33 OD4        14.0920   16.9217   33.3835 O.3         1 MOL      -0.3745
     34 OD5        13.5582   14.9482   35.5994 O.3         1 MOL      -0.3405
     35 OD6        12.3632   12.5557   34.9475 O.3         1 MOL      -0.3924
     36 CD7        13.1155   17.5343   32.5238 C.3         1 MOL       0.0370
     37 H1          8.1236   15.4734   45.9656 H           1 MOL       0.2523
     38 H2         12.0202   17.5184   44.8022 H           1 MOL       0.0843
     39 H3          9.9012   19.2292   44.0450 H           1 MOL       0.2137
     40 H4         10.8572   18.6675   42.2144 H           1 MOL       0.0674
     41 H5         12.2887   19.9278   43.2934 H           1 MOL       0.2103
     42 H6         12.9410   16.4267   42.4296 H           1 MOL       0.0650
     43 H7         10.1471   16.3713   41.1458 H           1 MOL       0.0603
     44 H8          9.5859   14.9735   43.1360 H           1 MOL       0.1812
     45 H9         11.7678   13.9365   42.0110 H           1 MOL       0.0581
     46 H10        11.9472   14.6656   40.4046 H           1 MOL       0.0581
     47 H11         9.8003   14.3844   40.0242 H           1 MOL       0.2095
     48 H12        13.8273   18.8134   40.7931 H           1 MOL       0.0938
     49 H13        14.3887   18.9381   38.4946 H           1 MOL       0.0671
     50 H14        12.7269   16.4298   37.9316 H           1 MOL       0.0648
     51 H15        15.7805   16.7068   37.9052 H           1 MOL       0.0651
     52 H16        14.0339   15.2045   39.9410 H           1 MOL       0.0647
     53 H17        16.0830   13.9971   39.8126 H           1 MOL       0.0584
     54 H18        16.1465   14.9857   41.2749 H           1 MOL       0.0584
     55 H19        12.3262   19.2593   37.6316 H           1 MOL       0.2101
     56 H20        12.8738   18.0800   36.4314 H           1 MOL       0.2100
     57 H21        17.4524   16.4452   40.2352 H           1 MOL       0.2095
     58 H22        15.0330   13.5515   35.9356 H           1 MOL       0.0938
     59 H23        16.9450   14.8501   35.4636 H           1 MOL       0.0671
     60 H24        16.3850   15.8335   33.1342 H           1 MOL       0.0648
     61 H25        14.1019   15.1511   32.2658 H           1 MOL       0.0649
     62 H26        12.2426   15.2309   34.0927 H           1 MOL       0.0647
     63 H27        13.8930   12.7488   33.5919 H           1 MOL       0.0584
     64 H28        12.3000   13.1918   32.9874 H           1 MOL       0.0584
     65 H29        15.2926   17.1369   35.2402 H           1 MOL       0.2101
     66 H30        16.0047   13.8255   32.3139 H           1 MOL       0.2100
     67 H31        12.2750   11.6292   34.6335 H           1 MOL       0.2095
     68 H32        13.1348   18.6082   32.7055 H           1 MOL       0.0524
     69 H33        12.1091   17.1699   32.7349 H           1 MOL       0.0524
     70 H34        13.3510   17.3613   31.4706 H           1 MOL       0.0524
@<TRIPOS>BOND
     1     1     2   2
     2     1     4   1
     3     1    11   1
     4     2     3   1
     5     4     5   1
     6     4     6   1
     7     6     7   1
     8     6     8   1
     9     8     9   1
    10     8    10   1
    11     9    14   1
    12    10    11   1
    13    10    12   1
    14    12    13   1
    15    14    15   1
    16    14    23   1
    17    15    16   1
    18    15    20   1
    19    16    17   1
    20    16    21   1
    21    17    18   1
    22    17    22   1
    23    18    19   1
    24    18    23   1
    25    19    24   1
    26    22    25   1
    27    25    26   1
    28    25    34   1
    29    26    27   1
    30    26    31   1
    31    27    28   1
    32    27    32   1
    33    28    29   1
    34    28    33   1
    35    29    30   1
    36    29    34   1
    37    30    35   1
    38    33    36   1
    39     3    37   1
    40     4    38   1
    41     5    39   1
    42     6    40   1
    43     7    41   1
    44     8    42   1
    45    10    43   1
    46    11    44   1
    47    12    45   1
    48    12    46   1
    49    13    47   1
    50    14    48   1
    51    15    49   1
    52    16    50   1
    53    17    51   1
    54    18    52   1
    55    19    53   1
    56    19    54   1
    57    20    55   1
    58    21    56   1
    59    24    57   1
    60    25    58   1
    61    26    59   1
    62    27    60   1
    63    28    61   1
    64    29    62   1
    65    30    63   1
    66    30    64   1
    67    31    65   1
    68    32    66   1
    69    35    67   1
    70    36    68   1
    71    36    69   1
    72    36    70   1
@<TRIPOS>SUBSTRUCTURE
     1  MOL      1

