@<TRIPOS>MOLECULE
1u33_ligand_060
    70    72
SMALL
GAST_HUCK
****
This file was generated by PARSER (from files_GN.cpp)

@<TRIPOS>ATOM
      1 CA1        11.6954   14.8276   38.8563 C.2         1 MOL       0.1322
      2 NA1        11.0072   14.0033   38.0431 N.2         1 MOL      -0.2068
      3 OA7        10.4885   14.3707   36.9027 O.3         1 MOL      -0.3046
      4 CA2        12.2352   14.2879   40.1257 C.3         1 MOL       0.1504
      5 OA2        11.1859   14.2127   41.0899 O.3         1 MOL      -0.3713
      6 CA3        13.4178   15.1450   40.6642 C.3         1 MOL       0.1237
      7 OA3        14.5809   14.8776   39.8789 O.3         1 MOL      -0.3840
      8 CA4        13.0912   16.6652   40.6531 C.3         1 MOL       0.1169
      9 OA4        12.1892   16.8745   41.7565 O.3         1 MOL      -0.3402
     10 CA5        12.5669   17.1266   39.2379 C.3         1 MOL       0.0902
     11 NA5        11.8724   16.1175   38.4921 N.pl3       1 MOL      -0.2990
     12 CA6        13.6914   17.7209   38.3433 C.3         1 MOL       0.0694
     13 OA6        13.9522   19.0759   38.7030 O.3         1 MOL      -0.3927
     14 CB1        11.5654   18.1630   41.9489 C.3         1 MOL       0.1884
     15 CB2        11.2852   18.4020   43.4536 C.3         1 MOL       0.1341
     16 CB3        10.2051   17.4186   43.9992 C.3         1 MOL       0.1144
     17 CB4         8.9553   17.3374   43.0675 C.3         1 MOL       0.1184
     18 CB5         9.3511   17.2096   41.5651 C.3         1 MOL       0.1134
     19 CB6         8.1760   17.3877   40.5778 C.3         1 MOL       0.0730
     20 OB2        12.5219   18.2592   44.1568 O.3         1 MOL      -0.3841
     21 OB3         9.8047   17.8379   45.3049 O.3         1 MOL      -0.3864
     22 OB4         7.9860   16.3403   43.4714 O.3         1 MOL      -0.3401
     23 OB5        10.3316   18.2151   41.2052 O.3         1 MOL      -0.3405
     24 OB6         8.5247   16.7420   39.3496 O.3         1 MOL      -0.3924
     25 CD1         8.2233   14.9030   43.5065 C.3         1 MOL       0.1884
     26 CD2         7.6286   14.1307   42.3037 C.3         1 MOL       0.1341
     27 CD3         6.1105   14.4288   42.1947 C.3         1 MOL       0.1143
     28 CD4         5.3500   14.1193   43.5233 C.3         1 MOL       0.1150
     29 CD5         6.1670   14.6000   44.7818 C.3         1 MOL       0.1133
     30 CD6         5.6997   13.9369   46.1068 C.3         1 MOL       0.0730
     31 OD2         8.2924   14.4849   41.0794 O.3         1 MOL      -0.3841
     32 OD3         5.5706   13.6554   41.1159 O.3         1 MOL      -0.3864
     33 OD4         4.0538   14.7510   43.6332 O.3         1 MOL      -0.3745
     34 OD5         7.5937   14.3608   44.6799 O.3         1 MOL      -0.3405
     35 OD6         4.7111   14.7280   46.7633 O.3         1 MOL      -0.3924
     36 CD7         3.2230   14.8744   42.4689 C.3         1 MOL       0.0370
     37 H1         11.1383   14.0735   36.2257 H           1 MOL       0.2523
     38 H2         12.5994   13.2701   39.9629 H           1 MOL       0.0843
     39 H3         10.5333   13.5792   40.7193 H           1 MOL       0.2137
     40 H4         13.6482   14.8189   41.6828 H           1 MOL       0.0674
     41 H5         15.3195   15.3031   40.3613 H           1 MOL       0.2103
     42 H6         14.0056   17.2044   40.9080 H           1 MOL       0.0650
     43 H7         11.8331   17.9248   39.3612 H           1 MOL       0.0603
     44 H8         11.4958   16.3855   37.6415 H           1 MOL       0.1812
     45 H9         13.3886   17.7247   37.2940 H           1 MOL       0.0581
     46 H10        14.6137   17.1425   38.4265 H           1 MOL       0.0581
     47 H11        14.1382   19.0676   39.6641 H           1 MOL       0.2095
     48 H12        12.2036   18.9765   41.5970 H           1 MOL       0.0938
     49 H13        10.9325   19.4300   43.5985 H           1 MOL       0.0671
     50 H14        10.6744   16.4357   44.0908 H           1 MOL       0.0648
     51 H15         8.4255   18.2873   43.1711 H           1 MOL       0.0651
     52 H16         9.7847   16.2138   41.4164 H           1 MOL       0.0647
     53 H17         7.9917   18.4551   40.4045 H           1 MOL       0.0584
     54 H18         7.2615   16.9334   40.9408 H           1 MOL       0.0584
     55 H19        12.3117   17.7228   44.9414 H           1 MOL       0.2101
     56 H20         9.1062   17.2077   45.5770 H           1 MOL       0.2100
     57 H21         8.3522   17.4223   38.6372 H           1 MOL       0.2095
     58 H22         9.2881   14.6588   43.5707 H           1 MOL       0.0938
     59 H23         7.7745   13.0476   42.4680 H           1 MOL       0.0671
     60 H24         5.9801   15.4926   41.9597 H           1 MOL       0.0648
     61 H25         5.2068   13.0334   43.5824 H           1 MOL       0.0649
     62 H26         6.0178   15.6798   44.8947 H           1 MOL       0.0647
     63 H27         6.5503   13.8260   46.7869 H           1 MOL       0.0584
     64 H28         5.2911   12.9430   45.9092 H           1 MOL       0.0584
     65 H29         8.1481   13.6802   40.4893 H           1 MOL       0.2101
     66 H30         5.8887   14.1101   40.2879 H           1 MOL       0.2100
     67 H31         5.1471   15.0458   47.5818 H           1 MOL       0.2095
     68 H32         2.2021   15.0834   42.7956 H           1 MOL       0.0524
     69 H33         3.2252   13.9608   41.8653 H           1 MOL       0.0524
     70 H34         3.5583   15.7168   41.8598 H           1 MOL       0.0524
@<TRIPOS>BOND
     1     1     2   2
     2     1     4   1
     3     1    11   1
     4     2     3   1
     5     4     5   1
     6     4     6   1
     7     6     7   1
     8     6     8   1
     9     8     9   1
    10     8    10   1
    11     9    14   1
    12    10    11   1
    13    10    12   1
    14    12    13   1
    15    14    15   1
    16    14    23   1
    17    15    16   1
    18    15    20   1
    19    16    17   1
    20    16    21   1
    21    17    18   1
    22    17    22   1
    23    18    19   1
    24    18    23   1
    25    19    24   1
    26    22    25   1
    27    25    26   1
    28    25    34   1
    29    26    27   1
    30    26    31   1
    31    27    28   1
    32    27    32   1
    33    28    29   1
    34    28    33   1
    35    29    30   1
    36    29    34   1
    37    30    35   1
    38    33    36   1
    39     3    37   1
    40     4    38   1
    41     5    39   1
    42     6    40   1
    43     7    41   1
    44     8    42   1
    45    10    43   1
    46    11    44   1
    47    12    45   1
    48    12    46   1
    49    13    47   1
    50    14    48   1
    51    15    49   1
    52    16    50   1
    53    17    51   1
    54    18    52   1
    55    19    53   1
    56    19    54   1
    57    20    55   1
    58    21    56   1
    59    24    57   1
    60    25    58   1
    61    26    59   1
    62    27    60   1
    63    28    61   1
    64    29    62   1
    65    30    63   1
    66    30    64   1
    67    31    65   1
    68    32    66   1
    69    35    67   1
    70    36    68   1
    71    36    69   1
    72    36    70   1
@<TRIPOS>SUBSTRUCTURE
     1  MOL      1

