@<TRIPOS>MOLECULE
1u33_ligand_045
    70    72
SMALL
GAST_HUCK
****
This file was generated by PARSER (from files_GN.cpp)

@<TRIPOS>ATOM
      1 CA1         3.5164   13.0408   40.8570 C.2         1 MOL       0.1322
      2 NA1         2.2048   12.7361   40.9695 N.2         1 MOL      -0.2068
      3 OA7         1.4429   12.3650   39.9693 O.3         1 MOL      -0.3046
      4 CA2         4.2620   13.4232   42.0833 C.3         1 MOL       0.1504
      5 OA2         3.4196   14.1864   42.9531 O.3         1 MOL      -0.3713
      6 CA3         5.5624   14.2066   41.7660 C.3         1 MOL       0.1237
      7 OA3         6.3261   14.2995   42.9617 O.3         1 MOL      -0.3840
      8 CA4         6.3947   13.5284   40.6371 C.3         1 MOL       0.1169
      9 OA4         7.6197   14.1489   40.1611 O.3         1 MOL      -0.3402
     10 CA5         5.4935   13.3232   39.3691 C.3         1 MOL       0.0902
     11 NA5         4.1341   12.9382   39.6542 N.pl3       1 MOL      -0.2990
     12 CA6         6.1060   12.3665   38.2886 C.3         1 MOL       0.0694
     13 OA6         7.1480   11.5164   38.7885 O.3         1 MOL      -0.3927
     14 CB1         8.2365   15.3209   40.7297 C.3         1 MOL       0.1884
     15 CB2         8.5287   16.3656   39.6245 C.3         1 MOL       0.1341
     16 CB3         9.7849   16.0007   38.7944 C.3         1 MOL       0.1144
     17 CB4        10.9922   15.7014   39.7260 C.3         1 MOL       0.1184
     18 CB5        10.6088   14.5767   40.7447 C.3         1 MOL       0.1134
     19 CB6        11.7652   14.2538   41.7579 C.3         1 MOL       0.0730
     20 OB2         7.3970   16.4908   38.7680 O.3         1 MOL      -0.3841
     21 OB3        10.1008   17.0610   37.8949 O.3         1 MOL      -0.3864
     22 OB4        12.1343   15.3266   38.9030 O.3         1 MOL      -0.3401
     23 OB5         9.4210   14.9756   41.4761 O.3         1 MOL      -0.3405
     24 OB6        11.4193   14.5615   43.1221 O.3         1 MOL      -0.3924
     25 CD1        13.2719   16.2303   38.8536 C.3         1 MOL       0.1884
     26 CD2        14.0296   16.1594   37.4949 C.3         1 MOL       0.1341
     27 CD3        14.8407   14.8426   37.3497 C.3         1 MOL       0.1143
     28 CD4        15.7328   14.5964   38.6068 C.3         1 MOL       0.1150
     29 CD5        14.8766   14.7009   39.9084 C.3         1 MOL       0.1133
     30 CD6        15.7516   14.6065   41.1865 C.3         1 MOL       0.0730
     31 OD2        13.1304   16.3209   36.3937 O.3         1 MOL      -0.3841
     32 OD3        15.6522   14.8858   36.1712 O.3         1 MOL      -0.3864
     33 OD4        16.5342   13.3925   38.5602 O.3         1 MOL      -0.3745
     34 OD5        14.1757   15.9676   39.9483 O.3         1 MOL      -0.3405
     35 OD6        14.9309   14.7373   42.3517 O.3         1 MOL      -0.3924
     36 CD7        16.2861   12.4214   37.5258 C.3         1 MOL       0.0370
     37 H1          0.6293   12.0236   40.3996 H           1 MOL       0.2523
     38 H2          4.5053   12.4878   42.5978 H           1 MOL       0.0843
     39 H3          4.0289   14.6003   43.6007 H           1 MOL       0.2137
     40 H4          5.2885   15.2182   41.4533 H           1 MOL       0.0674
     41 H5          6.6123   13.3871   43.1631 H           1 MOL       0.2103
     42 H6          6.6760   12.5424   41.0150 H           1 MOL       0.0650
     43 H7          5.3877   14.3010   38.8854 H           1 MOL       0.0603
     44 H8          3.5749   12.6947   38.8910 H           1 MOL       0.1812
     45 H9          6.5277   12.9669   37.4618 H           1 MOL       0.0581
     46 H10         5.3206   11.7218   37.8574 H           1 MOL       0.0581
     47 H11         7.5040   11.0790   37.9864 H           1 MOL       0.2095
     48 H12         7.5683   15.8169   41.4279 H           1 MOL       0.0938
     49 H13         8.7004   17.3387   40.1009 H           1 MOL       0.0671
     50 H14         9.5820   15.1129   38.1914 H           1 MOL       0.0648
     51 H15        11.1986   16.6023   40.3204 H           1 MOL       0.0651
     52 H16        10.3760   13.6638   40.1833 H           1 MOL       0.0647
     53 H17        12.6774   14.8227   41.5062 H           1 MOL       0.0584
     54 H18        12.0123   13.1768   41.6863 H           1 MOL       0.0584
     55 H19         7.4757   17.3867   38.3803 H           1 MOL       0.2101
     56 H20        10.2932   17.8431   38.4578 H           1 MOL       0.2100
     57 H21        12.1808   14.2162   43.6321 H           1 MOL       0.2095
     58 H22        12.9454   17.2701   38.9537 H           1 MOL       0.0938
     59 H23        14.7322   17.0012   37.4563 H           1 MOL       0.0671
     60 H24        14.1316   14.0143   37.2359 H           1 MOL       0.0648
     61 H25        16.4584   15.4175   38.6392 H           1 MOL       0.0649
     62 H26        14.1502   13.8824   39.9418 H           1 MOL       0.0647
     63 H27        16.5065   15.4061   41.1967 H           1 MOL       0.0584
     64 H28        16.2671   13.6369   41.2218 H           1 MOL       0.0584
     65 H29        12.4523   15.6217   36.5050 H           1 MOL       0.2101
     66 H30        16.2615   15.6467   36.2946 H           1 MOL       0.2100
     67 H31        15.5271   14.5275   43.1018 H           1 MOL       0.2095
     68 H32        16.7623   11.4846   37.8184 H           1 MOL       0.0524
     69 H33        16.7350   12.7580   36.5849 H           1 MOL       0.0524
     70 H34        15.2163   12.2414   37.3726 H           1 MOL       0.0524
@<TRIPOS>BOND
     1     1     2   2
     2     1     4   1
     3     1    11   1
     4     2     3   1
     5     4     5   1
     6     4     6   1
     7     6     7   1
     8     6     8   1
     9     8     9   1
    10     8    10   1
    11     9    14   1
    12    10    11   1
    13    10    12   1
    14    12    13   1
    15    14    15   1
    16    14    23   1
    17    15    16   1
    18    15    20   1
    19    16    17   1
    20    16    21   1
    21    17    18   1
    22    17    22   1
    23    18    19   1
    24    18    23   1
    25    19    24   1
    26    22    25   1
    27    25    26   1
    28    25    34   1
    29    26    27   1
    30    26    31   1
    31    27    28   1
    32    27    32   1
    33    28    29   1
    34    28    33   1
    35    29    30   1
    36    29    34   1
    37    30    35   1
    38    33    36   1
    39     3    37   1
    40     4    38   1
    41     5    39   1
    42     6    40   1
    43     7    41   1
    44     8    42   1
    45    10    43   1
    46    11    44   1
    47    12    45   1
    48    12    46   1
    49    13    47   1
    50    14    48   1
    51    15    49   1
    52    16    50   1
    53    17    51   1
    54    18    52   1
    55    19    53   1
    56    19    54   1
    57    20    55   1
    58    21    56   1
    59    24    57   1
    60    25    58   1
    61    26    59   1
    62    27    60   1
    63    28    61   1
    64    29    62   1
    65    30    63   1
    66    30    64   1
    67    31    65   1
    68    32    66   1
    69    35    67   1
    70    36    68   1
    71    36    69   1
    72    36    70   1
@<TRIPOS>SUBSTRUCTURE
     1  MOL      1

