@<TRIPOS>MOLECULE
1u33_ligand_007
    70    72
SMALL
GAST_HUCK
****
This file was generated by PARSER (from files_GN.cpp)

@<TRIPOS>ATOM
      1 CA1        11.2990   16.2486   37.8277 C.2         1 MOL       0.1322
      2 NA1        10.0938   16.4966   37.2711 N.2         1 MOL      -0.2068
      3 OA7         9.7573   17.6172   36.6925 O.3         1 MOL      -0.3046
      4 CA2        11.5127   14.9188   38.4554 C.3         1 MOL       0.1504
      5 OA2        10.5471   14.7697   39.4996 O.3         1 MOL      -0.3713
      6 CA3        12.9477   14.6816   39.0314 C.3         1 MOL       0.1237
      7 OA3        13.7479   13.9839   38.0778 O.3         1 MOL      -0.3840
      8 CA4        13.6549   15.9916   39.4715 C.3         1 MOL       0.1169
      9 OA4        12.9646   16.4648   40.6484 O.3         1 MOL      -0.3402
     10 CA5        13.5625   17.1015   38.3771 C.3         1 MOL       0.0902
     11 NA5        12.2467   17.2188   37.8203 N.pl3       1 MOL      -0.2990
     12 CA6        14.6049   16.9451   37.2353 C.3         1 MOL       0.0694
     13 OA6        14.4710   17.9621   36.2432 O.3         1 MOL      -0.3927
     14 CB1        13.6836   16.7411   41.8746 C.3         1 MOL       0.1884
     15 CB2        13.7254   15.5590   42.8798 C.3         1 MOL       0.1341
     16 CB3        12.2810   15.1195   43.2150 C.3         1 MOL       0.1144
     17 CB4        11.3656   16.2889   43.6981 C.3         1 MOL       0.1184
     18 CB5        11.6393   17.6307   42.9083 C.3         1 MOL       0.1134
     19 CB6        11.2923   18.9259   43.6921 C.3         1 MOL       0.0730
     20 OB2        14.4749   14.4568   42.3687 O.3         1 MOL      -0.3841
     21 OB3        12.3117   14.0942   44.2117 O.3         1 MOL      -0.3864
     22 OB4        10.0376   15.7148   43.6055 O.3         1 MOL      -0.3401
     23 OB5        13.0268   17.8260   42.5386 O.3         1 MOL      -0.3405
     24 OB6        12.2345   19.1910   44.7331 O.3         1 MOL      -0.3924
     25 CD1         8.8372   16.4788   43.7922 C.3         1 MOL       0.1884
     26 CD2         7.6290   15.5568   44.0964 C.3         1 MOL       0.1341
     27 CD3         7.2600   14.6640   42.8793 C.3         1 MOL       0.1143
     28 CD4         7.1352   15.4636   41.5478 C.3         1 MOL       0.1150
     29 CD5         8.3061   16.4940   41.4072 C.3         1 MOL       0.1133
     30 CD6         8.1504   17.5186   40.2446 C.3         1 MOL       0.0730
     31 OD2         7.8982   14.7420   45.2385 O.3         1 MOL      -0.3841
     32 OD3         6.0153   14.0330   43.1791 O.3         1 MOL      -0.3864
     33 OD4         7.2166   14.5867   40.3968 O.3         1 MOL      -0.3745
     34 OD5         8.5188   17.2554   42.6254 O.3         1 MOL      -0.3405
     35 OD6         7.1298   17.2058   39.2957 O.3         1 MOL      -0.3924
     36 CD7         6.2497   13.5346   40.2490 C.3         1 MOL       0.0370
     37 H1          9.3389   18.1532   37.4037 H           1 MOL       0.2523
     38 H2         11.2987   14.1513   37.7032 H           1 MOL       0.0843
     39 H3         10.5883   13.8167   39.7500 H           1 MOL       0.2137
     40 H4         12.8834   14.0194   39.9007 H           1 MOL       0.0674
     41 H5         13.4270   13.0493   38.1281 H           1 MOL       0.2103
     42 H6         14.7015   15.7712   39.6929 H           1 MOL       0.0650
     43 H7         13.7758   18.0578   38.8571 H           1 MOL       0.0603
     44 H8         12.0273   18.0551   37.3667 H           1 MOL       0.1812
     45 H9         14.5017   15.9779   36.7368 H           1 MOL       0.0581
     46 H10        15.6138   17.0129   37.6455 H           1 MOL       0.0581
     47 H11        13.6541   17.7303   35.7425 H           1 MOL       0.2095
     48 H12        14.7011   17.0746   41.6626 H           1 MOL       0.0938
     49 H13        14.2064   15.8901   43.8078 H           1 MOL       0.0671
     50 H14        11.8493   14.6774   42.3116 H           1 MOL       0.0648
     51 H15        11.5846   16.4641   44.7537 H           1 MOL       0.0651
     52 H16        11.0424   17.6193   41.9902 H           1 MOL       0.0647
     53 H17        10.2938   18.8790   44.1266 H           1 MOL       0.0584
     54 H18        11.3141   19.7785   43.0053 H           1 MOL       0.0584
     55 H19        15.3466   14.4981   42.8266 H           1 MOL       0.2101
     56 H20        12.5482   14.5482   45.0520 H           1 MOL       0.2100
     57 H21        12.1351   18.4514   45.3500 H           1 MOL       0.2095
     58 H22         8.9603   17.1457   44.6447 H           1 MOL       0.0938
     59 H23         6.7673   16.1950   44.3433 H           1 MOL       0.0671
     60 H24         8.0326   13.9000   42.7729 H           1 MOL       0.0648
     61 H25         6.1898   16.0166   41.5531 H           1 MOL       0.0649
     62 H26         9.2119   15.9198   41.2056 H           1 MOL       0.0647
     63 H27         9.0975   17.5768   39.6958 H           1 MOL       0.0584
     64 H28         7.9435   18.5242   40.6318 H           1 MOL       0.0584
     65 H29         7.9254   15.3701   45.9875 H           1 MOL       0.2101
     66 H30         6.1798   13.0712   43.0943 H           1 MOL       0.2100
     67 H31         6.2883   17.4278   39.7472 H           1 MOL       0.2095
     68 H32         6.4139   13.0558   39.2778 H           1 MOL       0.0524
     69 H33         5.2293   13.9308   40.2707 H           1 MOL       0.0524
     70 H34         6.3696   12.7722   41.0217 H           1 MOL       0.0524
@<TRIPOS>BOND
     1     1     2   2
     2     1     4   1
     3     1    11   1
     4     2     3   1
     5     4     5   1
     6     4     6   1
     7     6     7   1
     8     6     8   1
     9     8     9   1
    10     8    10   1
    11     9    14   1
    12    10    11   1
    13    10    12   1
    14    12    13   1
    15    14    15   1
    16    14    23   1
    17    15    16   1
    18    15    20   1
    19    16    17   1
    20    16    21   1
    21    17    18   1
    22    17    22   1
    23    18    19   1
    24    18    23   1
    25    19    24   1
    26    22    25   1
    27    25    26   1
    28    25    34   1
    29    26    27   1
    30    26    31   1
    31    27    28   1
    32    27    32   1
    33    28    29   1
    34    28    33   1
    35    29    30   1
    36    29    34   1
    37    30    35   1
    38    33    36   1
    39     3    37   1
    40     4    38   1
    41     5    39   1
    42     6    40   1
    43     7    41   1
    44     8    42   1
    45    10    43   1
    46    11    44   1
    47    12    45   1
    48    12    46   1
    49    13    47   1
    50    14    48   1
    51    15    49   1
    52    16    50   1
    53    17    51   1
    54    18    52   1
    55    19    53   1
    56    19    54   1
    57    20    55   1
    58    21    56   1
    59    24    57   1
    60    25    58   1
    61    26    59   1
    62    27    60   1
    63    28    61   1
    64    29    62   1
    65    30    63   1
    66    30    64   1
    67    31    65   1
    68    32    66   1
    69    35    67   1
    70    36    68   1
    71    36    69   1
    72    36    70   1
@<TRIPOS>SUBSTRUCTURE
     1  MOL      1

