@<TRIPOS>MOLECULE
1u33_ligand_027
    70    72
SMALL
GAST_HUCK
****
This file was generated by PARSER (from files_GN.cpp)

@<TRIPOS>ATOM
      1 CA1        12.8623   15.8044   43.0746 C.2         1 MOL       0.1322
      2 NA1        14.1272   15.4867   43.4050 N.2         1 MOL      -0.2068
      3 OA7        14.6692   15.5876   44.5892 O.3         1 MOL      -0.3046
      4 CA2        12.4701   15.5429   41.6704 C.3         1 MOL       0.1504
      5 OA2        13.3399   16.2356   40.7777 O.3         1 MOL      -0.3713
      6 CA3        11.0082   15.9536   41.3507 C.3         1 MOL       0.1237
      7 OA3        10.6040   15.3352   40.1293 O.3         1 MOL      -0.3840
      8 CA4        10.0548   15.6023   42.5254 C.3         1 MOL       0.1169
      9 OA4         8.7119   16.0319   42.1867 O.3         1 MOL      -0.3402
     10 CA5        10.5577   16.3581   43.8084 C.3         1 MOL       0.0902
     11 NA5        11.9764   16.2173   44.0185 N.pl3       1 MOL      -0.2990
     12 CA6         9.8395   15.9432   45.1294 C.3         1 MOL       0.0694
     13 OA6         8.6639   15.1522   44.9108 O.3         1 MOL      -0.3927
     14 CB1         7.7014   15.0414   41.8963 C.3         1 MOL       0.1884
     15 CB2         7.9636   14.2795   40.5704 C.3         1 MOL       0.1341
     16 CB3         6.7666   13.3373   40.2500 C.3         1 MOL       0.1144
     17 CB4         5.3890   14.0672   40.3067 C.3         1 MOL       0.1184
     18 CB5         5.2649   14.9996   41.5542 C.3         1 MOL       0.1134
     19 CB6         4.7671   14.2889   42.8420 C.3         1 MOL       0.0730
     20 OB2         8.1763   15.2013   39.5023 O.3         1 MOL      -0.3841
     21 OB3         6.7949   12.2559   41.1825 O.3         1 MOL      -0.3864
     22 OB4         5.1540   14.9051   39.1491 O.3         1 MOL      -0.3401
     23 OB5         6.4651   15.7695   41.7877 O.3         1 MOL      -0.3405
     24 OB6         3.3628   14.0284   42.7717 O.3         1 MOL      -0.3924
     25 CD1         4.4360   14.3535   38.0159 C.3         1 MOL       0.1884
     26 CD2         3.7766   15.5062   37.2073 C.3         1 MOL       0.1341
     27 CD3         2.5893   16.1377   38.0055 C.3         1 MOL       0.1143
     28 CD4         1.5777   15.0414   38.4677 C.3         1 MOL       0.1150
     29 CD5         2.3310   13.8703   39.1867 C.3         1 MOL       0.1133
     30 CD6         1.4243   12.6672   39.5551 C.3         1 MOL       0.0730
     31 OD2         4.7381   16.4977   36.8459 O.3         1 MOL      -0.3841
     32 OD3         1.9078   17.1235   37.2199 O.3         1 MOL      -0.3864
     33 OD4         0.4389   15.5883   39.1841 O.3         1 MOL      -0.3745
     34 OD5         3.4113   13.3822   38.3477 O.3         1 MOL      -0.3405
     35 OD6         0.3735   12.4550   38.6034 O.3         1 MOL      -0.3924
     36 CD7         0.5583   15.9200   40.5840 C.3         1 MOL       0.0370
     37 H1         15.3162   14.8486   44.6016 H           1 MOL       0.2523
     38 H2         12.5818   14.4714   41.4920 H           1 MOL       0.0843
     39 H3         14.2228   15.8265   40.9020 H           1 MOL       0.2137
     40 H4         10.9702   17.0419   41.1861 H           1 MOL       0.0674
     41 H5         10.8174   14.3842   40.2436 H           1 MOL       0.2103
     42 H6         10.1097   14.5226   42.7139 H           1 MOL       0.0650
     43 H7         10.3694   17.4272   43.6610 H           1 MOL       0.0603
     44 H8         12.3094   16.3358   44.9249 H           1 MOL       0.1812
     45 H9          9.5361   16.8541   45.6737 H           1 MOL       0.0581
     46 H10        10.5216   15.3740   45.7814 H           1 MOL       0.0581
     47 H11         8.0502   15.4239   45.6309 H           1 MOL       0.2095
     48 H12         7.6319   14.3314   42.7241 H           1 MOL       0.0938
     49 H13         8.8667   13.6731   40.6729 H           1 MOL       0.0671
     50 H14         6.9103   12.8981   39.2587 H           1 MOL       0.0648
     51 H15         4.6045   13.3066   40.3786 H           1 MOL       0.0651
     52 H16         4.5014   15.7514   41.3334 H           1 MOL       0.0647
     53 H17         4.9594   14.9166   43.7186 H           1 MOL       0.0584
     54 H18         5.2876   13.3424   42.9828 H           1 MOL       0.0584
     55 H19         8.4880   14.6544   38.7491 H           1 MOL       0.2101
     56 H20         5.9887   11.7296   41.0141 H           1 MOL       0.2100
     57 H21         2.9457   14.9137   42.7162 H           1 MOL       0.2095
     58 H22         5.1482   13.8499   37.3611 H           1 MOL       0.0938
     59 H23         3.3830   15.0939   36.2717 H           1 MOL       0.0671
     60 H24         2.9959   16.6463   38.8859 H           1 MOL       0.0648
     61 H25         1.1500   14.6282   37.5508 H           1 MOL       0.0649
     62 H26         2.7536   14.2535   40.1251 H           1 MOL       0.0647
     63 H27         0.9853   12.8259   40.5519 H           1 MOL       0.0584
     64 H28         2.0398   11.7523   39.6023 H           1 MOL       0.0584
     65 H29         4.4315   17.3351   37.2553 H           1 MOL       0.2101
     66 H30         1.7645   16.7048   36.3453 H           1 MOL       0.2100
     67 H31        -0.3124   11.9987   39.1297 H           1 MOL       0.2095
     68 H32        -0.3726   16.3945   40.9056 H           1 MOL       0.0524
     69 H33         1.3742   16.6215   40.7677 H           1 MOL       0.0524
     70 H34         0.7160   15.0217   41.1891 H           1 MOL       0.0524
@<TRIPOS>BOND
     1     1     2   2
     2     1     4   1
     3     1    11   1
     4     2     3   1
     5     4     5   1
     6     4     6   1
     7     6     7   1
     8     6     8   1
     9     8     9   1
    10     8    10   1
    11     9    14   1
    12    10    11   1
    13    10    12   1
    14    12    13   1
    15    14    15   1
    16    14    23   1
    17    15    16   1
    18    15    20   1
    19    16    17   1
    20    16    21   1
    21    17    18   1
    22    17    22   1
    23    18    19   1
    24    18    23   1
    25    19    24   1
    26    22    25   1
    27    25    26   1
    28    25    34   1
    29    26    27   1
    30    26    31   1
    31    27    28   1
    32    27    32   1
    33    28    29   1
    34    28    33   1
    35    29    30   1
    36    29    34   1
    37    30    35   1
    38    33    36   1
    39     3    37   1
    40     4    38   1
    41     5    39   1
    42     6    40   1
    43     7    41   1
    44     8    42   1
    45    10    43   1
    46    11    44   1
    47    12    45   1
    48    12    46   1
    49    13    47   1
    50    14    48   1
    51    15    49   1
    52    16    50   1
    53    17    51   1
    54    18    52   1
    55    19    53   1
    56    19    54   1
    57    20    55   1
    58    21    56   1
    59    24    57   1
    60    25    58   1
    61    26    59   1
    62    27    60   1
    63    28    61   1
    64    29    62   1
    65    30    63   1
    66    30    64   1
    67    31    65   1
    68    32    66   1
    69    35    67   1
    70    36    68   1
    71    36    69   1
    72    36    70   1
@<TRIPOS>SUBSTRUCTURE
     1  MOL      1

