@<TRIPOS>MOLECULE
1u33_ligand_056
    70    72
SMALL
GAST_HUCK
****
This file was generated by PARSER (from files_GN.cpp)

@<TRIPOS>ATOM
      1 CA1        13.1961   16.2506   42.5081 C.2         1 MOL       0.1322
      2 NA1        14.2692   15.5028   42.8275 N.2         1 MOL      -0.2068
      3 OA7        14.6828   15.3346   44.0511 O.3         1 MOL      -0.3046
      4 CA2        12.3817   16.9203   43.5522 C.3         1 MOL       0.1504
      5 OA2        11.6942   15.9019   44.2732 O.3         1 MOL      -0.3713
      6 CA3        11.3727   17.9513   42.9774 C.3         1 MOL       0.1237
      7 OA3        12.0500   19.1614   42.6523 O.3         1 MOL      -0.3840
      8 CA4        10.6531   17.3766   41.7201 C.3         1 MOL       0.1169
      9 OA4         9.8756   16.2112   42.0680 O.3         1 MOL      -0.3402
     10 CA5        11.6999   16.9195   40.6369 C.3         1 MOL       0.0902
     11 NA5        12.8742   16.3080   41.1934 N.pl3       1 MOL      -0.2990
     12 CA6        12.1346   18.0318   39.6331 C.3         1 MOL       0.0694
     13 OA6        11.2571   18.0547   38.5063 O.3         1 MOL      -0.3927
     14 CB1         8.5907   16.3625   42.7108 C.3         1 MOL       0.1884
     15 CB2         8.0535   14.9656   43.0984 C.3         1 MOL       0.1341
     16 CB3         7.7289   14.1347   41.8268 C.3         1 MOL       0.1144
     17 CB4         6.7586   14.9069   40.8769 C.3         1 MOL       0.1184
     18 CB5         7.2912   16.3616   40.6388 C.3         1 MOL       0.1134
     19 CB6         6.2671   17.2709   39.9079 C.3         1 MOL       0.0730
     20 OB2         8.9959   14.2938   43.9336 O.3         1 MOL      -0.3841
     21 OB3         7.1870   12.8795   42.2332 O.3         1 MOL      -0.3864
     22 OB4         6.6129   14.2889   39.5720 O.3         1 MOL      -0.3401
     23 OB5         7.6213   17.0265   41.8808 O.3         1 MOL      -0.3405
     24 OB6         6.2661   17.0377   38.5005 O.3         1 MOL      -0.3924
     25 CD1         5.8416   13.0717   39.4602 C.3         1 MOL       0.1884
     26 CD2         5.7274   12.6244   37.9793 C.3         1 MOL       0.1341
     27 CD3         4.7571   13.5398   37.1861 C.3         1 MOL       0.1143
     28 CD4         3.3787   13.6794   37.9059 C.3         1 MOL       0.1150
     29 CD5         3.6141   14.0902   39.3900 C.3         1 MOL       0.1133
     30 CD6         2.3134   14.1475   40.2476 C.3         1 MOL       0.0730
     31 OD2         7.0185   12.6155   37.3693 O.3         1 MOL      -0.3841
     32 OD3         4.5909   13.0227   35.8666 O.3         1 MOL      -0.3864
     33 OD4         2.5764   14.7186   37.2950 O.3         1 MOL      -0.3745
     34 OD5         4.5256   13.1777   40.0468 O.3         1 MOL      -0.3405
     35 OD6         2.1054   12.9643   41.0180 O.3         1 MOL      -0.3924
     36 CD7         1.7497   14.3569   36.1779 C.3         1 MOL       0.0370
     37 H1         15.2957   14.5703   44.0172 H           1 MOL       0.2523
     38 H2         13.0444   17.4415   44.2430 H           1 MOL       0.0843
     39 H3         11.9609   16.0126   45.2072 H           1 MOL       0.2137
     40 H4         10.6416   18.2012   43.7468 H           1 MOL       0.0674
     41 H5         11.3305   19.7798   42.4144 H           1 MOL       0.2103
     42 H6          9.9942   18.1273   41.2796 H           1 MOL       0.0650
     43 H7         11.2380   16.1368   40.0269 H           1 MOL       0.0603
     44 H8         13.4678   15.8466   40.5764 H           1 MOL       0.1812
     45 H9         13.1495   17.8352   39.2601 H           1 MOL       0.0581
     46 H10        12.1327   19.0190   40.1042 H           1 MOL       0.0581
     47 H11        11.6240   18.7368   37.9030 H           1 MOL       0.2095
     48 H12         8.6876   16.9470   43.6253 H           1 MOL       0.0938
     49 H13         7.1383   15.1039   43.6811 H           1 MOL       0.0671
     50 H14         8.6553   13.9224   41.2847 H           1 MOL       0.0648
     51 H15         5.7856   14.9909   41.3798 H           1 MOL       0.0651
     52 H16         8.1950   16.3178   40.0202 H           1 MOL       0.0647
     53 H17         6.5319   18.3206   40.0712 H           1 MOL       0.0584
     54 H18         5.2578   17.1080   40.3051 H           1 MOL       0.0584
     55 H19         8.4865   13.5712   44.3642 H           1 MOL       0.2101
     56 H20         6.4293   13.0933   42.8216 H           1 MOL       0.2100
     57 H21         5.5568   17.6243   38.1652 H           1 MOL       0.2095
     58 H22         6.3749   12.2784   39.9822 H           1 MOL       0.0938
     59 H23         5.3364   11.6035   37.9480 H           1 MOL       0.0671
     60 H24         5.2041   14.5319   37.0882 H           1 MOL       0.0648
     61 H25         2.8603   12.7145   37.9040 H           1 MOL       0.0649
     62 H26         4.0457   15.0966   39.3981 H           1 MOL       0.0647
     63 H27         1.4359   14.3166   39.6183 H           1 MOL       0.0584
     64 H28         2.3818   14.9794   40.9521 H           1 MOL       0.0584
     65 H29         6.8886   12.2065   36.4865 H           1 MOL       0.2101
     66 H30         4.1746   12.1422   35.9786 H           1 MOL       0.2100
     67 H31         2.0722   12.2285   40.3690 H           1 MOL       0.2095
     68 H32         1.1764   15.2356   35.8837 H           1 MOL       0.0524
     69 H33         1.0488   13.5666   36.4505 H           1 MOL       0.0524
     70 H34         2.3451   14.0386   35.3231 H           1 MOL       0.0524
@<TRIPOS>BOND
     1     1     2   2
     2     1     4   1
     3     1    11   1
     4     2     3   1
     5     4     5   1
     6     4     6   1
     7     6     7   1
     8     6     8   1
     9     8     9   1
    10     8    10   1
    11     9    14   1
    12    10    11   1
    13    10    12   1
    14    12    13   1
    15    14    15   1
    16    14    23   1
    17    15    16   1
    18    15    20   1
    19    16    17   1
    20    16    21   1
    21    17    18   1
    22    17    22   1
    23    18    19   1
    24    18    23   1
    25    19    24   1
    26    22    25   1
    27    25    26   1
    28    25    34   1
    29    26    27   1
    30    26    31   1
    31    27    28   1
    32    27    32   1
    33    28    29   1
    34    28    33   1
    35    29    30   1
    36    29    34   1
    37    30    35   1
    38    33    36   1
    39     3    37   1
    40     4    38   1
    41     5    39   1
    42     6    40   1
    43     7    41   1
    44     8    42   1
    45    10    43   1
    46    11    44   1
    47    12    45   1
    48    12    46   1
    49    13    47   1
    50    14    48   1
    51    15    49   1
    52    16    50   1
    53    17    51   1
    54    18    52   1
    55    19    53   1
    56    19    54   1
    57    20    55   1
    58    21    56   1
    59    24    57   1
    60    25    58   1
    61    26    59   1
    62    27    60   1
    63    28    61   1
    64    29    62   1
    65    30    63   1
    66    30    64   1
    67    31    65   1
    68    32    66   1
    69    35    67   1
    70    36    68   1
    71    36    69   1
    72    36    70   1
@<TRIPOS>SUBSTRUCTURE
     1  MOL      1

