@<TRIPOS>MOLECULE
1u33_ligand_002
    70    72
SMALL
GAST_HUCK
****
This file was generated by PARSER (from files_GN.cpp)

@<TRIPOS>ATOM
      1 CA1        14.9855   14.6526   38.6923 C.2         1 MOL       0.1322
      2 NA1        15.6150   14.1056   37.6345 N.2         1 MOL      -0.2068
      3 OA7        15.1876   13.0855   36.9472 O.3         1 MOL      -0.3046
      4 CA2        15.5769   15.8573   39.3227 C.3         1 MOL       0.1504
      5 OA2        16.9433   15.5710   39.6351 O.3         1 MOL      -0.3713
      6 CA3        14.8252   16.3472   40.6048 C.3         1 MOL       0.1237
      7 OA3        15.1566   17.7145   40.8477 O.3         1 MOL      -0.3840
      8 CA4        13.2800   16.1482   40.4887 C.3         1 MOL       0.1169
      9 OA4        12.6039   16.5127   41.7194 O.3         1 MOL      -0.3402
     10 CA5        13.0020   14.6389   40.1817 C.3         1 MOL       0.0902
     11 NA5        13.8148   14.1213   39.1231 N.pl3       1 MOL      -0.2990
     12 CA6        11.5083   14.3380   39.8497 C.3         1 MOL       0.0694
     13 OA6        10.8749   13.7052   40.9600 O.3         1 MOL      -0.3927
     14 CB1        11.9578   17.8101   41.7936 C.3         1 MOL       0.1884
     15 CB2        11.6115   18.2037   43.2578 C.3         1 MOL       0.1341
     16 CB3        10.4421   17.3561   43.8413 C.3         1 MOL       0.1144
     17 CB4         9.2288   17.2790   42.8627 C.3         1 MOL       0.1184
     18 CB5         9.6714   17.0323   41.3913 C.3         1 MOL       0.1134
     19 CB6         8.5144   17.3035   40.3953 C.3         1 MOL       0.0730
     20 OB2        12.7892   18.0707   44.0552 O.3         1 MOL      -0.3841
     21 OB3        10.0035   17.9381   45.0733 O.3         1 MOL      -0.3864
     22 OB4         8.1861   16.3577   43.2898 O.3         1 MOL      -0.3401
     23 OB5        10.7695   17.8761   40.9819 O.3         1 MOL      -0.3405
     24 OB6         8.8501   16.7857   39.1079 O.3         1 MOL      -0.3924
     25 CD1         8.3333   14.9155   43.3649 C.3         1 MOL       0.1884
     26 CD2         7.6538   14.1562   42.1926 C.3         1 MOL       0.1341
     27 CD3         6.1401   14.4781   42.1698 C.3         1 MOL       0.1143
     28 CD4         5.4456   14.1883   43.5362 C.3         1 MOL       0.1150
     29 CD5         6.3124   14.7100   44.7385 C.3         1 MOL       0.1133
     30 CD6         5.8960   14.1073   46.1100 C.3         1 MOL       0.0730
     31 OD2         8.2228   14.4593   40.9158 O.3         1 MOL      -0.3841
     32 OD3         5.5476   13.6939   41.1254 O.3         1 MOL      -0.3864
     33 OD4         4.1334   14.7856   43.6611 O.3         1 MOL      -0.3745
     34 OD5         7.7294   14.4406   44.5817 O.3         1 MOL      -0.3405
     35 OD6         4.8130   14.8277   46.6990 O.3         1 MOL      -0.3924
     36 CD7         3.2728   14.8467   42.5100 C.3         1 MOL       0.0370
     37 H1         14.4559   13.4344   36.3824 H           1 MOL       0.2523
     38 H2         15.5650   16.6606   38.5754 H           1 MOL       0.0843
     39 H3         17.2898   16.3575   40.1021 H           1 MOL       0.2137
     40 H4         15.1763   15.7662   41.4635 H           1 MOL       0.0674
     41 H5         16.1378   17.7676   40.8001 H           1 MOL       0.2103
     42 H6         12.9121   16.7485   39.6452 H           1 MOL       0.0650
     43 H7         13.2821   14.0632   41.0652 H           1 MOL       0.0603
     44 H8         13.5190   13.2932   38.7078 H           1 MOL       0.1812
     45 H9         11.4083   13.6493   39.0052 H           1 MOL       0.0581
     46 H10        10.9687   15.2457   39.5790 H           1 MOL       0.0581
     47 H11        11.1282   14.2386   41.7426 H           1 MOL       0.2095
     48 H12        12.6365   18.5799   41.4173 H           1 MOL       0.0938
     49 H13        11.3135   19.2616   43.2757 H           1 MOL       0.0671
     50 H14        10.8377   16.3550   44.0485 H           1 MOL       0.0648
     51 H15         8.7595   18.2611   42.8886 H           1 MOL       0.0651
     52 H16         9.9705   15.9938   41.2962 H           1 MOL       0.0647
     53 H17         8.3335   18.3772   40.3135 H           1 MOL       0.0584
     54 H18         7.5858   16.8278   40.7209 H           1 MOL       0.0584
     55 H19        12.4886   17.6383   44.8801 H           1 MOL       0.2101
     56 H20         9.2637   17.3711   45.3841 H           1 MOL       0.2100
     57 H21         8.4774   17.4415   38.4822 H           1 MOL       0.2095
     58 H22         9.3865   14.6211   43.3868 H           1 MOL       0.0938
     59 H23         7.7799   13.0769   42.3674 H           1 MOL       0.0671
     60 H24         6.0121   15.5394   41.9205 H           1 MOL       0.0648
     61 H25         5.3350   13.1048   43.6335 H           1 MOL       0.0649
     62 H26         6.1877   15.7946   44.8202 H           1 MOL       0.0647
     63 H27         6.7433   14.1588   46.8024 H           1 MOL       0.0584
     64 H28         5.6089   13.0570   46.0093 H           1 MOL       0.0584
     65 H29         9.0124   13.8810   40.8670 H           1 MOL       0.2101
     66 H30         5.9647   14.0014   40.2911 H           1 MOL       0.2100
     67 H31         5.1491   15.1463   47.5686 H           1 MOL       0.2095
     68 H32         2.2558   15.0328   42.8419 H           1 MOL       0.0524
     69 H33         3.2883   13.9129   41.9413 H           1 MOL       0.0524
     70 H34         3.5730   15.6728   41.8583 H           1 MOL       0.0524
@<TRIPOS>BOND
     1     1     2   2
     2     1     4   1
     3     1    11   1
     4     2     3   1
     5     4     5   1
     6     4     6   1
     7     6     7   1
     8     6     8   1
     9     8     9   1
    10     8    10   1
    11     9    14   1
    12    10    11   1
    13    10    12   1
    14    12    13   1
    15    14    15   1
    16    14    23   1
    17    15    16   1
    18    15    20   1
    19    16    17   1
    20    16    21   1
    21    17    18   1
    22    17    22   1
    23    18    19   1
    24    18    23   1
    25    19    24   1
    26    22    25   1
    27    25    26   1
    28    25    34   1
    29    26    27   1
    30    26    31   1
    31    27    28   1
    32    27    32   1
    33    28    29   1
    34    28    33   1
    35    29    30   1
    36    29    34   1
    37    30    35   1
    38    33    36   1
    39     3    37   1
    40     4    38   1
    41     5    39   1
    42     6    40   1
    43     7    41   1
    44     8    42   1
    45    10    43   1
    46    11    44   1
    47    12    45   1
    48    12    46   1
    49    13    47   1
    50    14    48   1
    51    15    49   1
    52    16    50   1
    53    17    51   1
    54    18    52   1
    55    19    53   1
    56    19    54   1
    57    20    55   1
    58    21    56   1
    59    24    57   1
    60    25    58   1
    61    26    59   1
    62    27    60   1
    63    28    61   1
    64    29    62   1
    65    30    63   1
    66    30    64   1
    67    31    65   1
    68    32    66   1
    69    35    67   1
    70    36    68   1
    71    36    69   1
    72    36    70   1
@<TRIPOS>SUBSTRUCTURE
     1  MOL      1

