@<TRIPOS>MOLECULE
1u33_ligand_006
    70    72
SMALL
GAST_HUCK
****
This file was generated by PARSER (from files_GN.cpp)

@<TRIPOS>ATOM
      1 CA1         8.6304   16.2875   42.3224 C.2         1 MOL       0.1322
      2 NA1         7.5612   16.4124   43.1354 N.2         1 MOL      -0.2068
      3 OA7         7.3632   15.6819   44.2020 O.3         1 MOL      -0.3046
      4 CA2         8.7319   17.1818   41.1540 C.3         1 MOL       0.1504
      5 OA2         7.4958   17.1491   40.4385 O.3         1 MOL      -0.3713
      6 CA3         9.8913   16.7989   40.1893 C.3         1 MOL       0.1237
      7 OA3        10.1729   17.9236   39.3578 O.3         1 MOL      -0.3840
      8 CA4        11.1855   16.3633   40.9408 C.3         1 MOL       0.1169
      9 OA4        12.1555   15.8444   39.9956 O.3         1 MOL      -0.3402
     10 CA5        10.8595   15.2408   41.9818 C.3         1 MOL       0.0902
     11 NA5         9.5938   15.3898   42.6406 N.pl3       1 MOL      -0.2990
     12 CA6        11.9473   15.1231   43.0861 C.3         1 MOL       0.0694
     13 OA6        11.7959   16.1369   44.0840 O.3         1 MOL      -0.3927
     14 CB1        13.2503   16.6644   39.5243 C.3         1 MOL       0.1884
     15 CB2        13.3063   16.7482   37.9758 C.3         1 MOL       0.1341
     16 CB3        13.7351   15.3920   37.3544 C.3         1 MOL       0.1144
     17 CB4        15.0720   14.8997   37.9669 C.3         1 MOL       0.1184
     18 CB5        14.9221   14.8528   39.5269 C.3         1 MOL       0.1134
     19 CB6        16.2341   14.4851   40.2726 C.3         1 MOL       0.0730
     20 OB2        12.0444   17.1258   37.4355 O.3         1 MOL      -0.3841
     21 OB3        13.8650   15.5409   35.9447 O.3         1 MOL      -0.3864
     22 OB4        15.3517   13.5934   37.3905 O.3         1 MOL      -0.3401
     23 OB5        14.4900   16.1418   40.0387 O.3         1 MOL      -0.3405
     24 OB6        17.3398   15.2585   39.8105 O.3         1 MOL      -0.3924
     25 CD1        16.6022   13.3803   36.6957 C.3         1 MOL       0.1884
     26 CD2        16.8210   14.3151   35.4707 C.3         1 MOL       0.1341
     27 CD3        18.1095   13.9093   34.7044 C.3         1 MOL       0.1143
     28 CD4        18.1097   12.3995   34.3179 C.3         1 MOL       0.1150
     29 CD5        17.7550   11.5047   35.5564 C.3         1 MOL       0.1133
     30 CD6        18.9048   11.1766   36.5663 C.3         1 MOL       0.0730
     31 OD2        15.6838   14.2713   34.6088 O.3         1 MOL      -0.3841
     32 OD3        19.2619   14.1916   35.4989 O.3         1 MOL      -0.3864
     33 OD4        17.1394   12.1294   33.2729 O.3         1 MOL      -0.3745
     34 OD5        16.5840   12.0028   36.2502 O.3         1 MOL      -0.3405
     35 OD6        20.1579   11.7815   36.2624 O.3         1 MOL      -0.3924
     36 CD7        17.5080   12.4674   31.9225 C.3         1 MOL       0.0370
     37 H1          7.4818   16.3140   44.9461 H           1 MOL       0.2523
     38 H2          8.8897   18.1902   41.5219 H           1 MOL       0.0843
     39 H3          7.4848   17.9489   39.8748 H           1 MOL       0.2137
     40 H4          9.5716   15.9625   39.5441 H           1 MOL       0.0674
     41 H5          9.3403   18.1017   38.8574 H           1 MOL       0.2103
     42 H6         11.5605   17.2355   41.4820 H           1 MOL       0.0650
     43 H7         10.8138   14.2804   41.4603 H           1 MOL       0.0603
     44 H8          9.4255   14.8075   43.4072 H           1 MOL       0.1812
     45 H9         12.9468   15.2068   42.6508 H           1 MOL       0.0581
     46 H10        11.8685   14.1437   43.5769 H           1 MOL       0.0581
     47 H11        12.2652   15.8007   44.8823 H           1 MOL       0.2095
     48 H12        13.1718   17.6861   39.9014 H           1 MOL       0.0938
     49 H13        14.0522   17.5198   37.6961 H           1 MOL       0.0671
     50 H14        12.9573   14.6572   37.5464 H           1 MOL       0.0648
     51 H15        15.8505   15.6347   37.7148 H           1 MOL       0.0651
     52 H16        14.1774   14.0889   39.7923 H           1 MOL       0.0647
     53 H17        16.4609   13.4265   40.1264 H           1 MOL       0.0584
     54 H18        16.1082   14.6575   41.3431 H           1 MOL       0.0584
     55 H19        12.1328   18.0704   37.1416 H           1 MOL       0.2101
     56 H20        13.9743   14.6218   35.6011 H           1 MOL       0.2100
     57 H21        17.3842   16.0521   40.3862 H           1 MOL       0.2095
     58 H22        17.4158   13.5308   37.4065 H           1 MOL       0.0938
     59 H23        16.9234   15.3490   35.8093 H           1 MOL       0.0671
     60 H24        18.1892   14.5253   33.8066 H           1 MOL       0.0648
     61 H25        19.1025   12.1195   33.9525 H           1 MOL       0.0649
     62 H26        17.4527   10.5391   35.1408 H           1 MOL       0.0647
     63 H27        19.0650   10.0983   36.5983 H           1 MOL       0.0584
     64 H28        18.6350   11.4791   37.5761 H           1 MOL       0.0584
     65 H29        15.5819   13.3328   34.3522 H           1 MOL       0.2101
     66 H30        19.9793   14.3880   34.8572 H           1 MOL       0.2100
     67 H31        20.5093   12.0595   37.1437 H           1 MOL       0.2095
     68 H32        16.6820   12.2001   31.2625 H           1 MOL       0.0524
     69 H33        18.3902   11.9062   31.6075 H           1 MOL       0.0524
     70 H34        17.7007   13.5353   31.8127 H           1 MOL       0.0524
@<TRIPOS>BOND
     1     1     2   2
     2     1     4   1
     3     1    11   1
     4     2     3   1
     5     4     5   1
     6     4     6   1
     7     6     7   1
     8     6     8   1
     9     8     9   1
    10     8    10   1
    11     9    14   1
    12    10    11   1
    13    10    12   1
    14    12    13   1
    15    14    15   1
    16    14    23   1
    17    15    16   1
    18    15    20   1
    19    16    17   1
    20    16    21   1
    21    17    18   1
    22    17    22   1
    23    18    19   1
    24    18    23   1
    25    19    24   1
    26    22    25   1
    27    25    26   1
    28    25    34   1
    29    26    27   1
    30    26    31   1
    31    27    28   1
    32    27    32   1
    33    28    29   1
    34    28    33   1
    35    29    30   1
    36    29    34   1
    37    30    35   1
    38    33    36   1
    39     3    37   1
    40     4    38   1
    41     5    39   1
    42     6    40   1
    43     7    41   1
    44     8    42   1
    45    10    43   1
    46    11    44   1
    47    12    45   1
    48    12    46   1
    49    13    47   1
    50    14    48   1
    51    15    49   1
    52    16    50   1
    53    17    51   1
    54    18    52   1
    55    19    53   1
    56    19    54   1
    57    20    55   1
    58    21    56   1
    59    24    57   1
    60    25    58   1
    61    26    59   1
    62    27    60   1
    63    28    61   1
    64    29    62   1
    65    30    63   1
    66    30    64   1
    67    31    65   1
    68    32    66   1
    69    35    67   1
    70    36    68   1
    71    36    69   1
    72    36    70   1
@<TRIPOS>SUBSTRUCTURE
     1  MOL      1

