@<TRIPOS>MOLECULE
1u33_ligand_055
    70    72
SMALL
GAST_HUCK
****
This file was generated by PARSER (from files_GN.cpp)

@<TRIPOS>ATOM
      1 CA1        14.5211   15.0583   39.5391 C.2         1 MOL       0.1322
      2 NA1        15.7455   15.1438   38.9698 N.2         1 MOL      -0.2068
      3 OA7        16.8740   15.4718   39.5334 O.3         1 MOL      -0.3046
      4 CA2        13.3958   14.6108   38.6742 C.3         1 MOL       0.1504
      5 OA2        13.3726   15.4008   37.4809 O.3         1 MOL      -0.3713
      6 CA3        12.0051   14.6887   39.3765 C.3         1 MOL       0.1237
      7 OA3        11.0746   13.8799   38.6607 O.3         1 MOL      -0.3840
      8 CA4        12.1075   14.2306   40.8566 C.3         1 MOL       0.1169
      9 OA4        10.8236   14.0644   41.5091 O.3         1 MOL      -0.3402
     10 CA5        13.1365   15.1527   41.5983 C.3         1 MOL       0.0902
     11 NA5        14.3692   15.2898   40.8684 N.pl3       1 MOL      -0.2990
     12 CA6        13.4240   14.6754   43.0547 C.3         1 MOL       0.0694
     13 OA6        13.3317   15.7568   43.9920 O.3         1 MOL      -0.3927
     14 CB1         9.9315   15.1841   41.7022 C.3         1 MOL       0.1884
     15 CB2         8.7530   14.7691   42.6228 C.3         1 MOL       0.1341
     16 CB3         7.8124   15.9898   42.8415 C.3         1 MOL       0.1144
     17 CB4         7.3444   16.6137   41.4902 C.3         1 MOL       0.1184
     18 CB5         8.5090   16.7681   40.4484 C.3         1 MOL       0.1134
     19 CB6         9.2722   18.1217   40.4887 C.3         1 MOL       0.0730
     20 OB2         8.0551   13.6707   42.0336 O.3         1 MOL      -0.3841
     21 OB3         8.4872   16.9563   43.6543 O.3         1 MOL      -0.3864
     22 OB4         6.3363   15.7137   40.9611 O.3         1 MOL      -0.3401
     23 OB5         9.4257   15.6431   40.4295 O.3         1 MOL      -0.3405
     24 OB6        10.2731   18.1899   41.4948 O.3         1 MOL      -0.3924
     25 CD1         4.9879   16.1849   40.7320 C.3         1 MOL       0.1884
     26 CD2         3.9734   15.2530   41.4503 C.3         1 MOL       0.1341
     27 CD3         3.8617   13.8823   40.7298 C.3         1 MOL       0.1143
     28 CD4         3.5977   14.0614   39.2084 C.3         1 MOL       0.1150
     29 CD5         4.6767   15.0163   38.6036 C.3         1 MOL       0.1133
     30 CD6         4.4407   15.3533   37.1115 C.3         1 MOL       0.0730
     31 OD2         4.3809   15.0771   42.8107 O.3         1 MOL      -0.3841
     32 OD3         2.8152   13.1389   41.3549 O.3         1 MOL      -0.3864
     33 OD4         3.6848   12.7895   38.5254 O.3         1 MOL      -0.3745
     34 OD5         4.7183   16.2695   39.3216 O.3         1 MOL      -0.3405
     35 OD6         3.4026   16.3133   36.9387 O.3         1 MOL      -0.3924
     36 CD7         2.4527   12.1989   38.0743 C.3         1 MOL       0.0370
     37 H1         16.7068   16.2893   40.0483 H           1 MOL       0.2523
     38 H2         13.5987   13.5708   38.3935 H           1 MOL       0.0843
     39 H3         12.7313   14.9510   36.8884 H           1 MOL       0.2137
     40 H4         11.6431   15.7228   39.3412 H           1 MOL       0.0674
     41 H5         10.2159   13.9910   39.1235 H           1 MOL       0.2103
     42 H6         12.5266   13.2266   40.8450 H           1 MOL       0.0650
     43 H7         12.7289   16.1618   41.6506 H           1 MOL       0.0603
     44 H8         15.1466   15.5864   41.3701 H           1 MOL       0.1812
     45 H9         14.4281   14.2381   43.1316 H           1 MOL       0.0581
     46 H10        12.7024   13.9110   43.3706 H           1 MOL       0.0581
     47 H11        13.1319   15.3305   44.8600 H           1 MOL       0.2095
     48 H12        10.4733   15.9747   42.2206 H           1 MOL       0.0938
     49 H13         9.1521   14.4385   43.5904 H           1 MOL       0.0671
     50 H14         6.9414   15.6541   43.4179 H           1 MOL       0.0648
     51 H15         6.9216   17.6018   41.7186 H           1 MOL       0.0651
     52 H16         8.0270   16.7534   39.4652 H           1 MOL       0.0647
     53 H17         8.5701   18.9441   40.6502 H           1 MOL       0.0584
     54 H18         9.7605   18.2792   39.5265 H           1 MOL       0.0584
     55 H19         7.5528   13.2423   42.7625 H           1 MOL       0.2101
     56 H20         7.7902   17.4013   44.1829 H           1 MOL       0.2100
     57 H21        10.6463   19.0925   41.4322 H           1 MOL       0.2095
     58 H22         4.8319   17.1907   41.1267 H           1 MOL       0.0938
     59 H23         2.9905   15.7404   41.4488 H           1 MOL       0.0671
     60 H24         4.7947   13.3288   40.8746 H           1 MOL       0.0648
     61 H25         2.6171   14.5310   39.0787 H           1 MOL       0.0649
     62 H26         5.6564   14.5347   38.6741 H           1 MOL       0.0647
     63 H27         4.1802   14.4527   36.5538 H           1 MOL       0.0584
     64 H28         5.3565   15.7643   36.6799 H           1 MOL       0.0584
     65 H29         3.5634   14.8369   43.3074 H           1 MOL       0.2101
     66 H30         2.6853   12.3583   40.7819 H           1 MOL       0.2100
     67 H31         3.7391   17.1347   37.3584 H           1 MOL       0.2095
     68 H32         2.6891   11.2792   37.5359 H           1 MOL       0.0524
     69 H33         1.9291   12.8696   37.3880 H           1 MOL       0.0524
     70 H34         1.7948   11.9467   38.9078 H           1 MOL       0.0524
@<TRIPOS>BOND
     1     1     2   2
     2     1     4   1
     3     1    11   1
     4     2     3   1
     5     4     5   1
     6     4     6   1
     7     6     7   1
     8     6     8   1
     9     8     9   1
    10     8    10   1
    11     9    14   1
    12    10    11   1
    13    10    12   1
    14    12    13   1
    15    14    15   1
    16    14    23   1
    17    15    16   1
    18    15    20   1
    19    16    17   1
    20    16    21   1
    21    17    18   1
    22    17    22   1
    23    18    19   1
    24    18    23   1
    25    19    24   1
    26    22    25   1
    27    25    26   1
    28    25    34   1
    29    26    27   1
    30    26    31   1
    31    27    28   1
    32    27    32   1
    33    28    29   1
    34    28    33   1
    35    29    30   1
    36    29    34   1
    37    30    35   1
    38    33    36   1
    39     3    37   1
    40     4    38   1
    41     5    39   1
    42     6    40   1
    43     7    41   1
    44     8    42   1
    45    10    43   1
    46    11    44   1
    47    12    45   1
    48    12    46   1
    49    13    47   1
    50    14    48   1
    51    15    49   1
    52    16    50   1
    53    17    51   1
    54    18    52   1
    55    19    53   1
    56    19    54   1
    57    20    55   1
    58    21    56   1
    59    24    57   1
    60    25    58   1
    61    26    59   1
    62    27    60   1
    63    28    61   1
    64    29    62   1
    65    30    63   1
    66    30    64   1
    67    31    65   1
    68    32    66   1
    69    35    67   1
    70    36    68   1
    71    36    69   1
    72    36    70   1
@<TRIPOS>SUBSTRUCTURE
     1  MOL      1

