@<TRIPOS>MOLECULE
1u33_ligand_023
    70    72
SMALL
GAST_HUCK
****
This file was generated by PARSER (from files_GN.cpp)

@<TRIPOS>ATOM
      1 CA1         8.1762   17.6915   42.0131 C.2         1 MOL       0.1322
      2 NA1         6.9593   18.2550   42.1720 N.2         1 MOL      -0.2068
      3 OA7         6.6116   19.0363   43.1615 O.3         1 MOL      -0.3046
      4 CA2         8.4430   16.9785   40.7384 C.3         1 MOL       0.1504
      5 OA2         7.4856   15.9368   40.5357 O.3         1 MOL      -0.3713
      6 CA3         9.8699   16.3628   40.6764 C.3         1 MOL       0.1237
      7 OA3        10.2057   16.0475   39.3232 O.3         1 MOL      -0.3840
      8 CA4        10.9129   17.3261   41.3087 C.3         1 MOL       0.1169
      9 OA4        12.2302   16.7548   41.1062 O.3         1 MOL      -0.3402
     10 CA5        10.5244   17.5364   42.8141 C.3         1 MOL       0.0902
     11 NA5         9.1311   17.8642   42.9609 N.pl3       1 MOL      -0.2990
     12 CA6        11.3764   18.6429   43.4895 C.3         1 MOL       0.0694
     13 OA6        10.9398   18.8954   44.8204 O.3         1 MOL      -0.3927
     14 CB1        13.3307   17.5789   40.6454 C.3         1 MOL       0.1884
     15 CB2        13.2573   18.0810   39.1656 C.3         1 MOL       0.1341
     16 CB3        13.4158   16.8986   38.1664 C.3         1 MOL       0.1144
     17 CB4        14.7368   16.1240   38.4633 C.3         1 MOL       0.1184
     18 CB5        14.7342   15.6787   39.9603 C.3         1 MOL       0.1134
     19 CB6        16.0135   14.9100   40.3910 C.3         1 MOL       0.0730
     20 OB2        12.0628   18.8133   38.8923 O.3         1 MOL      -0.3841
     21 OB3        13.4197   17.3983   36.8263 O.3         1 MOL      -0.3864
     22 OB4        14.8507   14.9771   37.5808 O.3         1 MOL      -0.3401
     23 OB5        14.5564   16.8283   40.8225 O.3         1 MOL      -0.3405
     24 OB6        17.2048   15.4056   39.7866 O.3         1 MOL      -0.3924
     25 CD1        16.0927   14.7749   36.8528 C.3         1 MOL       0.1884
     26 CD2        16.0043   15.2657   35.3784 C.3         1 MOL       0.1341
     27 CD3        14.9874   14.3954   34.5970 C.3         1 MOL       0.1143
     28 CD4        15.4044   12.8957   34.6512 C.3         1 MOL       0.1150
     29 CD5        15.6643   12.4297   36.1334 C.3         1 MOL       0.1133
     30 CD6        16.4284   11.0809   36.2180 C.3         1 MOL       0.0730
     31 OD2        15.6651   16.6473   35.2902 O.3         1 MOL      -0.3841
     32 OD3        14.8918   14.8330   33.2398 O.3         1 MOL      -0.3864
     33 OD4        14.4991   12.0695   33.8737 O.3         1 MOL      -0.3745
     34 OD5        16.4772   13.3811   36.8648 O.3         1 MOL      -0.3405
     35 OD6        16.1224   10.1462   35.1798 O.3         1 MOL      -0.3924
     36 CD7        13.2431   11.6459   34.4323 C.3         1 MOL       0.0370
     37 H1          7.3605   19.6700   43.2453 H           1 MOL       0.2523
     38 H2          8.3348   17.7015   39.9259 H           1 MOL       0.0843
     39 H3          6.6205   16.3896   40.4438 H           1 MOL       0.2137
     40 H4          9.8834   15.4215   41.2342 H           1 MOL       0.0674
     41 H5         10.2303   16.9056   38.8492 H           1 MOL       0.2103
     42 H6         10.8124   18.2964   40.8120 H           1 MOL       0.0650
     43 H7         10.7018   16.6018   43.3561 H           1 MOL       0.0603
     44 H8          8.8423   18.2529   43.8004 H           1 MOL       0.1812
     45 H9         11.3019   19.5779   42.9284 H           1 MOL       0.0581
     46 H10        12.4253   18.3433   43.5309 H           1 MOL       0.0581
     47 H11        11.2269   18.1213   45.3421 H           1 MOL       0.2095
     48 H12        13.4057   18.4596   41.2878 H           1 MOL       0.0938
     49 H13        14.0907   18.7788   39.0108 H           1 MOL       0.0671
     50 H14        12.5662   16.2142   38.2690 H           1 MOL       0.0648
     51 H15        15.5590   16.8311   38.3086 H           1 MOL       0.0651
     52 H16        13.8991   14.9894   40.1174 H           1 MOL       0.0647
     53 H17        15.9153   13.8571   40.1157 H           1 MOL       0.0584
     54 H18        16.1244   14.9621   41.4779 H           1 MOL       0.0584
     55 H19        12.1691   19.1881   37.9878 H           1 MOL       0.2101
     56 H20        12.6626   18.0278   36.7816 H           1 MOL       0.2100
     57 H21        17.3975   16.2643   40.2153 H           1 MOL       0.2095
     58 H22        16.9269   15.2900   37.3228 H           1 MOL       0.0938
     59 H23        16.9936   15.1551   34.9182 H           1 MOL       0.0671
     60 H24        14.0016   14.5218   35.0493 H           1 MOL       0.0648
     61 H25        16.3602   12.8206   34.1284 H           1 MOL       0.0649
     62 H26        14.7062   12.3274   36.6556 H           1 MOL       0.0647
     63 H27        16.2083   10.6027   37.1770 H           1 MOL       0.0584
     64 H28        17.5112   11.2698   36.1821 H           1 MOL       0.0584
     65 H29        14.7694   16.7118   35.6760 H           1 MOL       0.2101
     66 H30        15.7920   14.7287   32.8669 H           1 MOL       0.2100
     67 H31        16.4720   10.5620   34.3609 H           1 MOL       0.2095
     68 H32        12.6445   11.2271   33.6294 H           1 MOL       0.0524
     69 H33        12.6874   12.4700   34.8810 H           1 MOL       0.0524
     70 H34        13.4055   10.8684   35.1800 H           1 MOL       0.0524
@<TRIPOS>BOND
     1     1     2   2
     2     1     4   1
     3     1    11   1
     4     2     3   1
     5     4     5   1
     6     4     6   1
     7     6     7   1
     8     6     8   1
     9     8     9   1
    10     8    10   1
    11     9    14   1
    12    10    11   1
    13    10    12   1
    14    12    13   1
    15    14    15   1
    16    14    23   1
    17    15    16   1
    18    15    20   1
    19    16    17   1
    20    16    21   1
    21    17    18   1
    22    17    22   1
    23    18    19   1
    24    18    23   1
    25    19    24   1
    26    22    25   1
    27    25    26   1
    28    25    34   1
    29    26    27   1
    30    26    31   1
    31    27    28   1
    32    27    32   1
    33    28    29   1
    34    28    33   1
    35    29    30   1
    36    29    34   1
    37    30    35   1
    38    33    36   1
    39     3    37   1
    40     4    38   1
    41     5    39   1
    42     6    40   1
    43     7    41   1
    44     8    42   1
    45    10    43   1
    46    11    44   1
    47    12    45   1
    48    12    46   1
    49    13    47   1
    50    14    48   1
    51    15    49   1
    52    16    50   1
    53    17    51   1
    54    18    52   1
    55    19    53   1
    56    19    54   1
    57    20    55   1
    58    21    56   1
    59    24    57   1
    60    25    58   1
    61    26    59   1
    62    27    60   1
    63    28    61   1
    64    29    62   1
    65    30    63   1
    66    30    64   1
    67    31    65   1
    68    32    66   1
    69    35    67   1
    70    36    68   1
    71    36    69   1
    72    36    70   1
@<TRIPOS>SUBSTRUCTURE
     1  MOL      1

