@<TRIPOS>MOLECULE
1u33_ligand_008
    70    72
SMALL
GAST_HUCK
****
This file was generated by PARSER (from files_GN.cpp)

@<TRIPOS>ATOM
      1 CA1        14.2034   16.8763   38.3991 C.2         1 MOL       0.1322
      2 NA1        14.5811   17.8045   37.4927 N.2         1 MOL      -0.2068
      3 OA7        13.9487   18.1201   36.3912 O.3         1 MOL      -0.3046
      4 CA2        12.9594   16.0800   38.2375 C.3         1 MOL       0.1504
      5 OA2        11.8391   16.9105   38.5177 O.3         1 MOL      -0.3713
      6 CA3        12.9516   14.7977   39.1164 C.3         1 MOL       0.1237
      7 OA3        13.7082   13.7990   38.4198 O.3         1 MOL      -0.3840
      8 CA4        13.5650   14.9798   40.5403 C.3         1 MOL       0.1169
      9 OA4        12.6149   15.3729   41.5563 O.3         1 MOL      -0.3402
     10 CA5        14.9219   15.7736   40.5220 C.3         1 MOL       0.0902
     11 NA5        15.0472   16.7108   39.4436 N.pl3       1 MOL      -0.2990
     12 CA6        16.1736   14.8405   40.5310 C.3         1 MOL       0.0694
     13 OA6        17.3052   15.4118   39.8719 O.3         1 MOL      -0.3927
     14 CB1        12.2490   16.7240   41.9106 C.3         1 MOL       0.1884
     15 CB2        11.9776   16.7432   43.4411 C.3         1 MOL       0.1341
     16 CB3        10.7137   15.8922   43.7677 C.3         1 MOL       0.1144
     17 CB4         9.4921   16.3799   42.9369 C.3         1 MOL       0.1184
     18 CB5         9.8510   16.4325   41.4218 C.3         1 MOL       0.1134
     19 CB6         8.7358   17.1054   40.5819 C.3         1 MOL       0.0730
     20 OB2        13.1229   16.2431   44.1310 O.3         1 MOL      -0.3841
     21 OB3        10.4017   15.9505   45.1593 O.3         1 MOL      -0.3864
     22 OB4         8.2402   15.6970   43.2186 O.3         1 MOL      -0.3401
     23 OB5        11.0724   17.1816   41.2090 O.3         1 MOL      -0.3405
     24 OB6         8.7139   16.5633   39.2638 O.3         1 MOL      -0.3924
     25 CD1         8.0584   14.2607   43.2391 C.3         1 MOL       0.1884
     26 CD2         7.3231   13.6664   42.0099 C.3         1 MOL       0.1341
     27 CD3         5.8956   14.2521   41.8872 C.3         1 MOL       0.1143
     28 CD4         5.0767   14.0613   43.2030 C.3         1 MOL       0.1150
     29 CD5         5.9347   14.4378   44.4636 C.3         1 MOL       0.1133
     30 CD6         5.2894   13.9218   45.7777 C.3         1 MOL       0.0730
     31 OD2         8.0567   13.8562   40.8041 O.3         1 MOL      -0.3841
     32 OD3         5.2391   13.6293   40.7816 O.3         1 MOL      -0.3864
     33 OD4         3.8697   14.8574   43.2689 O.3         1 MOL      -0.3745
     34 OD5         7.2859   13.9225   44.4095 O.3         1 MOL      -0.3405
     35 OD6         6.1011   14.1457   46.9336 O.3         1 MOL      -0.3924
     36 CD7         3.0487   15.0060   42.1000 C.3         1 MOL       0.0370
     37 H1         13.1460   18.6131   36.6673 H           1 MOL       0.2523
     38 H2         12.8732   15.7682   37.1946 H           1 MOL       0.0843
     39 H3         11.7427   17.4981   37.7417 H           1 MOL       0.2137
     40 H4         11.9261   14.4265   39.2028 H           1 MOL       0.0674
     41 H5         13.3576   12.9404   38.7342 H           1 MOL       0.2103
     42 H6         13.7900   13.9677   40.8876 H           1 MOL       0.0650
     43 H7         14.9816   16.3646   41.4357 H           1 MOL       0.0603
     44 H8         15.8460   17.2626   39.4482 H           1 MOL       0.1812
     45 H9         15.9419   13.8972   40.0285 H           1 MOL       0.0581
     46 H10        16.4513   14.6170   41.5676 H           1 MOL       0.0581
     47 H11        17.5115   16.2439   40.3492 H           1 MOL       0.2095
     48 H12        13.0628   17.4228   41.6926 H           1 MOL       0.0938
     49 H13        11.8172   17.7751   43.7656 H           1 MOL       0.0671
     50 H14        10.9342   14.8508   43.5253 H           1 MOL       0.0648
     51 H15         9.3052   17.4140   43.2423 H           1 MOL       0.0651
     52 H16        10.0017   15.4143   41.0606 H           1 MOL       0.0647
     53 H17         8.9074   18.1879   40.5278 H           1 MOL       0.0584
     54 H18         7.7505   16.9412   41.0265 H           1 MOL       0.0584
     55 H19        12.8887   16.2613   45.0824 H           1 MOL       0.2101
     56 H20        11.1813   15.5552   45.6097 H           1 MOL       0.2100
     57 H21         8.2717   17.2538   38.7261 H           1 MOL       0.2095
     58 H22         9.0078   13.7468   43.3354 H           1 MOL       0.0938
     59 H23         7.2351   12.5860   42.1588 H           1 MOL       0.0671
     60 H24         5.9576   15.3199   41.6739 H           1 MOL       0.0648
     61 H25         4.7914   13.0081   43.2773 H           1 MOL       0.0649
     62 H26         5.9953   15.5280   44.5379 H           1 MOL       0.0647
     63 H27         5.1173   12.8477   45.6984 H           1 MOL       0.0584
     64 H28         4.3306   14.4168   45.9306 H           1 MOL       0.0584
     65 H29         7.5479   13.3784   40.1167 H           1 MOL       0.2101
     66 H30         5.3417   12.6611   40.9127 H           1 MOL       0.2100
     67 H31         6.5657   14.9961   46.7776 H           1 MOL       0.2095
     68 H32         2.0534   15.3177   42.4104 H           1 MOL       0.0524
     69 H33         2.9571   14.0746   41.5413 H           1 MOL       0.0524
     70 H34         3.4612   15.7781   41.4506 H           1 MOL       0.0524
@<TRIPOS>BOND
     1     1     2   2
     2     1     4   1
     3     1    11   1
     4     2     3   1
     5     4     5   1
     6     4     6   1
     7     6     7   1
     8     6     8   1
     9     8     9   1
    10     8    10   1
    11     9    14   1
    12    10    11   1
    13    10    12   1
    14    12    13   1
    15    14    15   1
    16    14    23   1
    17    15    16   1
    18    15    20   1
    19    16    17   1
    20    16    21   1
    21    17    18   1
    22    17    22   1
    23    18    19   1
    24    18    23   1
    25    19    24   1
    26    22    25   1
    27    25    26   1
    28    25    34   1
    29    26    27   1
    30    26    31   1
    31    27    28   1
    32    27    32   1
    33    28    29   1
    34    28    33   1
    35    29    30   1
    36    29    34   1
    37    30    35   1
    38    33    36   1
    39     3    37   1
    40     4    38   1
    41     5    39   1
    42     6    40   1
    43     7    41   1
    44     8    42   1
    45    10    43   1
    46    11    44   1
    47    12    45   1
    48    12    46   1
    49    13    47   1
    50    14    48   1
    51    15    49   1
    52    16    50   1
    53    17    51   1
    54    18    52   1
    55    19    53   1
    56    19    54   1
    57    20    55   1
    58    21    56   1
    59    24    57   1
    60    25    58   1
    61    26    59   1
    62    27    60   1
    63    28    61   1
    64    29    62   1
    65    30    63   1
    66    30    64   1
    67    31    65   1
    68    32    66   1
    69    35    67   1
    70    36    68   1
    71    36    69   1
    72    36    70   1
@<TRIPOS>SUBSTRUCTURE
     1  MOL      1

