@<TRIPOS>MOLECULE
1u33_ligand_054
    70    72
SMALL
GAST_HUCK
****
This file was generated by PARSER (from files_GN.cpp)

@<TRIPOS>ATOM
      1 CA1        11.1608   18.5459   44.1494 C.2         1 MOL       0.1322
      2 NA1        11.2762   19.4998   45.0930 N.2         1 MOL      -0.2068
      3 OA7        12.3582   20.1972   45.3111 O.3         1 MOL      -0.3046
      4 CA2        12.3128   18.1981   43.2719 C.3         1 MOL       0.1504
      5 OA2        12.8543   19.3754   42.6604 O.3         1 MOL      -0.3713
      6 CA3        11.9460   17.1802   42.1519 C.3         1 MOL       0.1237
      7 OA3        13.1373   16.6039   41.6213 O.3         1 MOL      -0.3840
      8 CA4        10.9643   16.0954   42.6936 C.3         1 MOL       0.1169
      9 OA4        10.7379   14.9891   41.7844 O.3         1 MOL      -0.3402
     10 CA5         9.6696   16.8045   43.2080 C.3         1 MOL       0.0902
     11 NA5         9.9749   17.8883   44.1026 N.pl3       1 MOL      -0.2990
     12 CA6         8.6623   15.8260   43.8712 C.3         1 MOL       0.0694
     13 OA6         9.1425   15.3012   45.1068 O.3         1 MOL      -0.3927
     14 CB1        10.3560   15.2401   40.4191 C.3         1 MOL       0.1884
     15 CB2        10.2333   13.8783   39.6815 C.3         1 MOL       0.1341
     16 CB3        10.0240   14.0872   38.1586 C.3         1 MOL       0.1144
     17 CB4        11.0615   15.0767   37.5418 C.3         1 MOL       0.1184
     18 CB5        11.1671   16.3857   38.3983 C.3         1 MOL       0.1134
     19 CB6         9.9970   17.3970   38.1997 C.3         1 MOL       0.0730
     20 OB2        11.3989   13.0919   39.9375 O.3         1 MOL      -0.3841
     21 OB3         8.6893   14.5310   37.9201 O.3         1 MOL      -0.3864
     22 OB4        12.3294   14.3735   37.4739 O.3         1 MOL      -0.3401
     23 OB5        11.3808   16.0630   39.8016 O.3         1 MOL      -0.3405
     24 OB6         9.8185   17.7092   36.8257 O.3         1 MOL      -0.3924
     25 CD1        13.3758   14.8830   36.6161 C.3         1 MOL       0.1884
     26 CD2        14.0476   13.7183   35.8517 C.3         1 MOL       0.1341
     27 CD3        14.9291   12.8497   36.7908 C.3         1 MOL       0.1143
     28 CD4        15.9313   13.7170   37.6173 C.3         1 MOL       0.1150
     29 CD5        15.1556   14.8897   38.3075 C.3         1 MOL       0.1133
     30 CD6        16.0838   15.9227   39.0011 C.3         1 MOL       0.0730
     31 OD2        13.0651   12.8967   35.2168 O.3         1 MOL      -0.3841
     32 OD3        15.6239   11.8943   35.9881 O.3         1 MOL      -0.3864
     33 OD4        16.5922   12.9547   38.6577 O.3         1 MOL      -0.3745
     34 OD5        14.3663   15.6308   37.3486 O.3         1 MOL      -0.3405
     35 OD6        16.9321   15.3321   39.9940 O.3         1 MOL      -0.3924
     36 CD7        17.4636   11.8765   38.2650 C.3         1 MOL       0.0370
     37 H1         12.1631   20.7217   46.1119 H           1 MOL       0.2523
     38 H2         13.0871   17.7530   43.9023 H           1 MOL       0.0843
     39 H3         12.0962   19.8254   42.2187 H           1 MOL       0.2137
     40 H4         11.4552   17.7368   41.3477 H           1 MOL       0.0674
     41 H5         12.8449   16.1260   40.8098 H           1 MOL       0.2103
     42 H6         11.4487   15.6263   43.5551 H           1 MOL       0.0650
     43 H7          9.1595   17.2615   42.3558 H           1 MOL       0.0603
     44 H8          9.2685   18.1826   44.7000 H           1 MOL       0.1812
     45 H9          8.4627   14.9876   43.2008 H           1 MOL       0.0581
     46 H10         7.7168   16.3407   44.0565 H           1 MOL       0.0581
     47 H11         8.5980   15.7408   45.7955 H           1 MOL       0.2095
     48 H12         9.3727   15.7296   40.4110 H           1 MOL       0.0938
     49 H13         9.3805   13.3285   40.0909 H           1 MOL       0.0671
     50 H14        10.1215   13.1196   37.6655 H           1 MOL       0.0648
     51 H15        10.7380   15.3181   36.5197 H           1 MOL       0.0651
     52 H16        12.0680   16.9223   38.0919 H           1 MOL       0.0647
     53 H17        10.2166   18.3188   38.7479 H           1 MOL       0.0584
     54 H18         9.0540   16.9946   38.5687 H           1 MOL       0.0584
     55 H19        12.1505   13.6100   39.5819 H           1 MOL       0.2101
     56 H20         8.5473   14.4421   36.9575 H           1 MOL       0.2100
     57 H21        10.5450   18.3320   36.6226 H           1 MOL       0.2095
     58 H22        12.9561   15.5540   35.8630 H           1 MOL       0.0938
     59 H23        14.6875   14.1340   35.0708 H           1 MOL       0.0671
     60 H24        14.2929   12.3038   37.4932 H           1 MOL       0.0648
     61 H25        16.6747   14.1522   36.9410 H           1 MOL       0.0649
     62 H26        14.4891   14.4786   39.0775 H           1 MOL       0.0647
     63 H27        15.4736   16.6894   39.4950 H           1 MOL       0.0584
     64 H28        16.7111   16.4184   38.2501 H           1 MOL       0.0584
     65 H29        12.6688   13.4586   34.5186 H           1 MOL       0.2101
     66 H30        15.1780   11.0398   36.1770 H           1 MOL       0.2100
     67 H31        17.4822   16.0717   40.3302 H           1 MOL       0.2095
     68 H32        18.0535   11.5791   39.1339 H           1 MOL       0.0524
     69 H33        18.1479   12.1775   37.4678 H           1 MOL       0.0524
     70 H34        16.8870   11.0091   37.9423 H           1 MOL       0.0524
@<TRIPOS>BOND
     1     1     2   2
     2     1     4   1
     3     1    11   1
     4     2     3   1
     5     4     5   1
     6     4     6   1
     7     6     7   1
     8     6     8   1
     9     8     9   1
    10     8    10   1
    11     9    14   1
    12    10    11   1
    13    10    12   1
    14    12    13   1
    15    14    15   1
    16    14    23   1
    17    15    16   1
    18    15    20   1
    19    16    17   1
    20    16    21   1
    21    17    18   1
    22    17    22   1
    23    18    19   1
    24    18    23   1
    25    19    24   1
    26    22    25   1
    27    25    26   1
    28    25    34   1
    29    26    27   1
    30    26    31   1
    31    27    28   1
    32    27    32   1
    33    28    29   1
    34    28    33   1
    35    29    30   1
    36    29    34   1
    37    30    35   1
    38    33    36   1
    39     3    37   1
    40     4    38   1
    41     5    39   1
    42     6    40   1
    43     7    41   1
    44     8    42   1
    45    10    43   1
    46    11    44   1
    47    12    45   1
    48    12    46   1
    49    13    47   1
    50    14    48   1
    51    15    49   1
    52    16    50   1
    53    17    51   1
    54    18    52   1
    55    19    53   1
    56    19    54   1
    57    20    55   1
    58    21    56   1
    59    24    57   1
    60    25    58   1
    61    26    59   1
    62    27    60   1
    63    28    61   1
    64    29    62   1
    65    30    63   1
    66    30    64   1
    67    31    65   1
    68    32    66   1
    69    35    67   1
    70    36    68   1
    71    36    69   1
    72    36    70   1
@<TRIPOS>SUBSTRUCTURE
     1  MOL      1

