@<TRIPOS>MOLECULE
1u33_ligand_040
    70    72
SMALL
GAST_HUCK
****
This file was generated by PARSER (from files_GN.cpp)

@<TRIPOS>ATOM
      1 CA1        15.0757   14.3058   38.8832 C.2         1 MOL       0.1322
      2 NA1        15.5655   13.7566   37.7465 N.2         1 MOL      -0.2068
      3 OA7        15.1447   12.6642   37.1632 O.3         1 MOL      -0.3046
      4 CA2        15.6473   15.6092   39.3213 C.3         1 MOL       0.1504
      5 OA2        17.0785   15.4921   39.4055 O.3         1 MOL      -0.3713
      6 CA3        15.0570   16.1566   40.6717 C.3         1 MOL       0.1237
      7 OA3        15.2503   17.5731   40.7384 O.3         1 MOL      -0.3840
      8 CA4        13.5401   15.7988   40.7751 C.3         1 MOL       0.1169
      9 OA4        12.8641   16.2454   41.9803 O.3         1 MOL      -0.3402
     10 CA5        13.4209   14.2415   40.7111 C.3         1 MOL       0.0902
     11 NA5        14.0281   13.7236   39.5268 N.pl3       1 MOL      -0.2990
     12 CA6        11.9737   13.6769   40.8133 C.3         1 MOL       0.0694
     13 OA6        11.2103   14.2642   41.8668 O.3         1 MOL      -0.3927
     14 CB1        12.3456   17.5834   42.1508 C.3         1 MOL       0.1884
     15 CB2        11.0807   17.5592   43.0542 C.3         1 MOL       0.1341
     16 CB3         9.8373   16.9870   42.3097 C.3         1 MOL       0.1144
     17 CB4         9.6096   17.6340   40.9108 C.3         1 MOL       0.1184
     18 CB5        10.9554   17.7744   40.1285 C.3         1 MOL       0.1134
     19 CB6        10.8615   18.6693   38.8732 C.3         1 MOL       0.0730
     20 OB2        11.2983   16.7690   44.2225 O.3         1 MOL      -0.3841
     21 OB3         8.6641   17.1768   43.1149 O.3         1 MOL      -0.3864
     22 OB4         8.5268   16.9970   40.1743 O.3         1 MOL      -0.3401
     23 OB5        12.0210   18.3039   40.9444 O.3         1 MOL      -0.3405
     24 OB6        10.4192   17.8991   37.7582 O.3         1 MOL      -0.3924
     25 CD1         8.6348   15.6508   39.6448 C.3         1 MOL       0.1884
     26 CD2         7.8889   15.5152   38.2840 C.3         1 MOL       0.1341
     27 CD3         6.3466   15.5549   38.4777 C.3         1 MOL       0.1143
     28 CD4         5.9017   14.5011   39.5284 C.3         1 MOL       0.1150
     29 CD5         6.7216   14.6904   40.8478 C.3         1 MOL       0.1133
     30 CD6         6.4740   13.5511   41.8629 C.3         1 MOL       0.0730
     31 OD2         8.3052   16.5262   37.3574 O.3         1 MOL      -0.3841
     32 OD3         5.6891   15.3037   37.2279 O.3         1 MOL      -0.3864
     33 OD4         4.4775   14.4133   39.7118 O.3         1 MOL      -0.3745
     34 OD5         8.1350   14.6735   40.5763 O.3         1 MOL      -0.3405
     35 OD6         5.3651   13.8121   42.7242 O.3         1 MOL      -0.3924
     36 CD7         3.7406   15.5201   40.2662 C.3         1 MOL       0.0370
     37 H1         14.2670   12.4547   37.5478 H           1 MOL       0.2523
     38 H2         15.4236   16.3426   38.5306 H           1 MOL       0.0843
     39 H3         17.3652   16.2664   39.9351 H           1 MOL       0.2137
     40 H4         15.5883   15.6921   41.5064 H           1 MOL       0.0674
     41 H5         16.2244   17.7032   40.7427 H           1 MOL       0.2103
     42 H6         13.0557   16.2047   39.8898 H           1 MOL       0.0650
     43 H7         13.9753   13.8428   41.5636 H           1 MOL       0.0603
     44 H8         13.6338   12.9341   39.1320 H           1 MOL       0.1812
     45 H9         12.0355   12.5962   41.0114 H           1 MOL       0.0581
     46 H10        11.4429   13.8193   39.8649 H           1 MOL       0.0581
     47 H11        11.7761   14.1571   42.6670 H           1 MOL       0.2095
     48 H12        13.1164   18.1572   42.6661 H           1 MOL       0.0938
     49 H13        10.8538   18.5864   43.3699 H           1 MOL       0.0671
     50 H14         9.9892   15.9137   42.1802 H           1 MOL       0.0648
     51 H15         9.2630   18.6524   41.0987 H           1 MOL       0.0651
     52 H16        11.2608   16.7869   39.7979 H           1 MOL       0.0647
     53 H17        11.8457   19.0745   38.6240 H           1 MOL       0.0584
     54 H18        10.1786   19.5088   39.0366 H           1 MOL       0.0584
     55 H19        11.7011   17.3639   44.8955 H           1 MOL       0.2101
     56 H20         8.5783   18.1494   43.2280 H           1 MOL       0.2100
     57 H21        10.7827   18.3745   36.9908 H           1 MOL       0.2095
     58 H22         9.6644   15.3849   39.4356 H           1 MOL       0.0938
     59 H23         8.1557   14.5518   37.8338 H           1 MOL       0.0671
     60 H24         6.0683   16.5625   38.8076 H           1 MOL       0.0648
     61 H25         6.1828   13.5273   39.1239 H           1 MOL       0.0649
     62 H26         6.4549   15.6361   41.3226 H           1 MOL       0.0647
     63 H27         7.3634   13.4105   42.4949 H           1 MOL       0.0584
     64 H28         6.2849   12.6046   41.3400 H           1 MOL       0.0584
     65 H29         8.1595   17.3709   37.8293 H           1 MOL       0.2101
     66 H30         5.8927   16.0895   36.6657 H           1 MOL       0.2100
     67 H31         5.4353   13.1052   43.4049 H           1 MOL       0.2095
     68 H32         2.7098   15.2004   40.4189 H           1 MOL       0.0524
     69 H33         3.7326   16.3668   39.5781 H           1 MOL       0.0524
     70 H34         4.1465   15.8306   41.2286 H           1 MOL       0.0524
@<TRIPOS>BOND
     1     1     2   2
     2     1     4   1
     3     1    11   1
     4     2     3   1
     5     4     5   1
     6     4     6   1
     7     6     7   1
     8     6     8   1
     9     8     9   1
    10     8    10   1
    11     9    14   1
    12    10    11   1
    13    10    12   1
    14    12    13   1
    15    14    15   1
    16    14    23   1
    17    15    16   1
    18    15    20   1
    19    16    17   1
    20    16    21   1
    21    17    18   1
    22    17    22   1
    23    18    19   1
    24    18    23   1
    25    19    24   1
    26    22    25   1
    27    25    26   1
    28    25    34   1
    29    26    27   1
    30    26    31   1
    31    27    28   1
    32    27    32   1
    33    28    29   1
    34    28    33   1
    35    29    30   1
    36    29    34   1
    37    30    35   1
    38    33    36   1
    39     3    37   1
    40     4    38   1
    41     5    39   1
    42     6    40   1
    43     7    41   1
    44     8    42   1
    45    10    43   1
    46    11    44   1
    47    12    45   1
    48    12    46   1
    49    13    47   1
    50    14    48   1
    51    15    49   1
    52    16    50   1
    53    17    51   1
    54    18    52   1
    55    19    53   1
    56    19    54   1
    57    20    55   1
    58    21    56   1
    59    24    57   1
    60    25    58   1
    61    26    59   1
    62    27    60   1
    63    28    61   1
    64    29    62   1
    65    30    63   1
    66    30    64   1
    67    31    65   1
    68    32    66   1
    69    35    67   1
    70    36    68   1
    71    36    69   1
    72    36    70   1
@<TRIPOS>SUBSTRUCTURE
     1  MOL      1

