@<TRIPOS>MOLECULE
1u33_ligand_080
    70    72
SMALL
GAST_HUCK
****
This file was generated by PARSER (from files_GN.cpp)

@<TRIPOS>ATOM
      1 CA1        15.3964   16.1418   36.3171 C.2         1 MOL       0.1322
      2 NA1        15.7499   15.6018   35.1323 N.2         1 MOL      -0.2068
      3 OA7        16.7800   14.8180   34.9698 O.3         1 MOL      -0.3046
      4 CA2        14.1643   16.9718   36.3776 C.3         1 MOL       0.1504
      5 OA2        14.2376   17.9996   35.3894 O.3         1 MOL      -0.3713
      6 CA3        13.8959   17.6357   37.7647 C.3         1 MOL       0.1237
      7 OA3        12.4984   17.9134   37.9238 O.3         1 MOL      -0.3840
      8 CA4        14.3664   16.7223   38.9267 C.3         1 MOL       0.1169
      9 OA4        14.2590   17.3965   40.1965 O.3         1 MOL      -0.3402
     10 CA5        15.8650   16.3429   38.7374 C.3         1 MOL       0.0902
     11 NA5        16.1265   15.8439   37.4201 N.pl3       1 MOL      -0.2990
     12 CA6        16.3148   15.3011   39.8009 C.3         1 MOL       0.0694
     13 OA6        17.7125   15.3999   40.0285 O.3         1 MOL      -0.3927
     14 CB1        13.3906   17.0158   41.2802 C.3         1 MOL       0.1884
     15 CB2        12.9697   15.5224   41.4270 C.3         1 MOL       0.1341
     16 CB3        12.1503   15.3423   42.7375 C.3         1 MOL       0.1144
     17 CB4        10.9456   16.3453   42.8113 C.3         1 MOL       0.1184
     18 CB5        11.4035   17.8090   42.5051 C.3         1 MOL       0.1134
     19 CB6        12.0490   18.5687   43.7087 C.3         1 MOL       0.0730
     20 OB2        12.1621   15.0509   40.3473 O.3         1 MOL      -0.3841
     21 OB3        13.0166   15.4873   43.8640 O.3         1 MOL      -0.3864
     22 OB4         9.9268   16.0572   41.8280 O.3         1 MOL      -0.3401
     23 OB5        12.2252   17.8659   41.3090 O.3         1 MOL      -0.3405
     24 OB6        11.0895   19.3189   44.4869 O.3         1 MOL      -0.3924
     25 CD1         9.3599   14.7403   41.6527 C.3         1 MOL       0.1884
     26 CD2         8.7328   14.6652   40.2350 C.3         1 MOL       0.1341
     27 CD3         7.4140   15.5045   40.1550 C.3         1 MOL       0.1143
     28 CD4         6.4282   15.1346   41.3088 C.3         1 MOL       0.1150
     29 CD5         7.1920   15.1845   42.6779 C.3         1 MOL       0.1133
     30 CD6         6.3360   14.7336   43.8928 C.3         1 MOL       0.0730
     31 OD2         9.6761   15.1256   39.2652 O.3         1 MOL      -0.3841
     32 OD3         6.8271   15.2980   38.8607 O.3         1 MOL      -0.3864
     33 OD4         5.2512   15.9764   41.4627 O.3         1 MOL      -0.3745
     34 OD5         8.3931   14.3772   42.6582 O.3         1 MOL      -0.3405
     35 OD6         5.1334   14.0538   43.5088 O.3         1 MOL      -0.3924
     36 CD7         4.6277   16.6153   40.3387 C.3         1 MOL       0.0370
     37 H1         17.1284   15.0511   34.0708 H           1 MOL       0.2523
     38 H2         13.3154   16.3252   36.1242 H           1 MOL       0.0843
     39 H3         14.3031   17.5367   34.5252 H           1 MOL       0.2137
     40 H4         14.4419   18.5850   37.8234 H           1 MOL       0.0674
     41 H5         12.3538   18.7559   37.4480 H           1 MOL       0.2103
     42 H6         13.8026   15.7929   38.8784 H           1 MOL       0.0650
     43 H7         16.4763   17.2390   38.8824 H           1 MOL       0.0603
     44 H8         16.9161   15.2910   37.3013 H           1 MOL       0.1812
     45 H9         16.0816   14.2804   39.4651 H           1 MOL       0.0581
     46 H10        15.8177   15.4737   40.7624 H           1 MOL       0.0581
     47 H11        17.8322   16.2103   40.5644 H           1 MOL       0.2095
     48 H12        13.9950   17.2543   42.1510 H           1 MOL       0.0938
     49 H13        13.8594   14.8837   41.4568 H           1 MOL       0.0671
     50 H14        11.7830   14.3052   42.7896 H           1 MOL       0.0648
     51 H15        10.5053   16.2923   43.8086 H           1 MOL       0.0651
     52 H16        10.5157   18.3855   42.2480 H           1 MOL       0.0647
     53 H17        12.8064   19.2768   43.3266 H           1 MOL       0.0584
     54 H18        12.5550   17.8783   44.3895 H           1 MOL       0.0584
     55 H19        11.4649   15.7301   40.2028 H           1 MOL       0.2101
     56 H20        13.0517   14.5959   44.2945 H           1 MOL       0.2100
     57 H21        10.5217   19.7458   43.7998 H           1 MOL       0.2095
     58 H22        10.1674   14.0003   41.6981 H           1 MOL       0.0938
     59 H23         8.5132   13.6196   40.0233 H           1 MOL       0.0671
     60 H24         7.6867   16.5677   40.2316 H           1 MOL       0.0648
     61 H25         6.0825   14.1110   41.1099 H           1 MOL       0.0649
     62 H26         7.4711   16.2259   42.8659 H           1 MOL       0.0647
     63 H27         6.0426   15.6043   44.4872 H           1 MOL       0.0584
     64 H28         6.9310   14.0665   44.5405 H           1 MOL       0.0584
     65 H29        10.1673   14.3243   38.9759 H           1 MOL       0.2101
     66 H30         6.5809   14.3503   38.8467 H           1 MOL       0.2100
     67 H31         5.3958   13.1055   43.4883 H           1 MOL       0.2095
     68 H32         3.6930   17.0457   40.6810 H           1 MOL       0.0524
     69 H33         4.4216   15.9067   39.5277 H           1 MOL       0.0524
     70 H34         5.2820   17.4230   39.9870 H           1 MOL       0.0524
@<TRIPOS>BOND
     1     1     2   2
     2     1     4   1
     3     1    11   1
     4     2     3   1
     5     4     5   1
     6     4     6   1
     7     6     7   1
     8     6     8   1
     9     8     9   1
    10     8    10   1
    11     9    14   1
    12    10    11   1
    13    10    12   1
    14    12    13   1
    15    14    15   1
    16    14    23   1
    17    15    16   1
    18    15    20   1
    19    16    17   1
    20    16    21   1
    21    17    18   1
    22    17    22   1
    23    18    19   1
    24    18    23   1
    25    19    24   1
    26    22    25   1
    27    25    26   1
    28    25    34   1
    29    26    27   1
    30    26    31   1
    31    27    28   1
    32    27    32   1
    33    28    29   1
    34    28    33   1
    35    29    30   1
    36    29    34   1
    37    30    35   1
    38    33    36   1
    39     3    37   1
    40     4    38   1
    41     5    39   1
    42     6    40   1
    43     7    41   1
    44     8    42   1
    45    10    43   1
    46    11    44   1
    47    12    45   1
    48    12    46   1
    49    13    47   1
    50    14    48   1
    51    15    49   1
    52    16    50   1
    53    17    51   1
    54    18    52   1
    55    19    53   1
    56    19    54   1
    57    20    55   1
    58    21    56   1
    59    24    57   1
    60    25    58   1
    61    26    59   1
    62    27    60   1
    63    28    61   1
    64    29    62   1
    65    30    63   1
    66    30    64   1
    67    31    65   1
    68    32    66   1
    69    35    67   1
    70    36    68   1
    71    36    69   1
    72    36    70   1
@<TRIPOS>SUBSTRUCTURE
     1  MOL      1

