@<TRIPOS>MOLECULE
1u33_ligand_004
    70    72
SMALL
GAST_HUCK
****
This file was generated by PARSER (from files_GN.cpp)

@<TRIPOS>ATOM
      1 CA1         4.7674   14.0402   41.5504 C.2         1 MOL       0.1322
      2 NA1         3.6149   13.3440   41.6386 N.2         1 MOL      -0.2068
      3 OA7         3.2864   12.5241   42.6013 O.3         1 MOL      -0.3046
      4 CA2         4.9605   14.9544   40.4022 C.3         1 MOL       0.1504
      5 OA2         4.4155   14.3952   39.2029 O.3         1 MOL      -0.3713
      6 CA3         6.4676   15.2318   40.1638 C.3         1 MOL       0.1237
      7 OA3         6.6098   16.2198   39.1443 O.3         1 MOL      -0.3840
      8 CA4         7.1869   15.6801   41.4674 C.3         1 MOL       0.1169
      9 OA4         8.5895   15.7170   41.1278 O.3         1 MOL      -0.3402
     10 CA5         6.9103   14.6824   42.6531 C.3         1 MOL       0.0902
     11 NA5         5.6918   13.9361   42.5328 N.pl3       1 MOL      -0.2990
     12 CA6         6.9260   15.3465   44.0716 C.3         1 MOL       0.0694
     13 OA6         7.9506   14.7926   44.8983 O.3         1 MOL      -0.3927
     14 CB1         9.5513   16.2895   42.0340 C.3         1 MOL       0.1884
     15 CB2         9.9520   17.7227   41.5801 C.3         1 MOL       0.1341
     16 CB3        11.2486   18.2023   42.3082 C.3         1 MOL       0.1144
     17 CB4        12.3710   17.1269   42.2274 C.3         1 MOL       0.1184
     18 CB5        11.8619   15.7302   42.6915 C.3         1 MOL       0.1134
     19 CB6        11.7500   15.5754   44.2335 C.3         1 MOL       0.0730
     20 OB2        10.1352   17.7412   40.1604 O.3         1 MOL      -0.3841
     21 OB3        10.9632   18.5279   43.6671 O.3         1 MOL      -0.3864
     22 OB4        12.7521   17.0059   40.8431 O.3         1 MOL      -0.3401
     23 OB5        10.6587   15.3634   41.9800 O.3         1 MOL      -0.3405
     24 OB6        11.9232   14.2166   44.6260 O.3         1 MOL      -0.3924
     25 CD1        13.8859   17.7601   40.3769 C.3         1 MOL       0.1884
     26 CD2        13.6239   18.2523   38.9293 C.3         1 MOL       0.1341
     27 CD3        13.7032   17.0783   37.9156 C.3         1 MOL       0.1143
     28 CD4        15.0146   16.2622   38.1071 C.3         1 MOL       0.1150
     29 CD5        15.0929   15.7867   39.5918 C.3         1 MOL       0.1133
     30 CD6        16.3515   14.9523   39.9299 C.3         1 MOL       0.0730
     31 OD2        12.3491   18.8886   38.8757 O.3         1 MOL      -0.3841
     32 OD3        13.6409   17.5779   36.5826 O.3         1 MOL      -0.3864
     33 OD4        15.0029   15.1279   37.2101 O.3         1 MOL      -0.3745
     34 OD5        15.0680   16.9356   40.4752 O.3         1 MOL      -0.3405
     35 OD6        17.5470   15.6898   39.7170 O.3         1 MOL      -0.3924
     36 CD7        16.1575   14.9563   36.3692 C.3         1 MOL       0.0370
     37 H1          4.0929   12.0149   42.8356 H           1 MOL       0.2523
     38 H2          4.4451   15.8950   40.6102 H           1 MOL       0.0843
     39 H3          3.4525   14.3038   39.3688 H           1 MOL       0.2137
     40 H4          6.9333   14.3117   39.7967 H           1 MOL       0.0674
     41 H5          7.5739   16.2937   38.9766 H           1 MOL       0.2103
     42 H6          6.8256   16.6835   41.7149 H           1 MOL       0.0650
     43 H7          7.6903   13.9148   42.6234 H           1 MOL       0.0603
     44 H8          5.5343   13.2778   43.2223 H           1 MOL       0.1812
     45 H9          5.9745   15.2002   44.6003 H           1 MOL       0.0581
     46 H10         7.0900   16.4248   44.0071 H           1 MOL       0.0581
     47 H11         7.9501   15.3559   45.7007 H           1 MOL       0.2095
     48 H12         9.1646   16.3336   43.0550 H           1 MOL       0.0938
     49 H13         9.1252   18.4058   41.8126 H           1 MOL       0.0671
     50 H14        11.6069   19.1193   41.8377 H           1 MOL       0.0648
     51 H15        13.2252   17.4130   42.8543 H           1 MOL       0.0651
     52 H16        12.6135   15.0016   42.3785 H           1 MOL       0.0647
     53 H17        10.7808   15.9129   44.6046 H           1 MOL       0.0584
     54 H18        12.5307   16.1736   44.7146 H           1 MOL       0.0584
     55 H19        10.2695   18.6862   39.9363 H           1 MOL       0.2101
     56 H20        10.3111   19.2575   43.6295 H           1 MOL       0.2100
     57 H21        12.3062   14.2952   45.5236 H           1 MOL       0.2095
     58 H22        14.0533   18.6473   40.9958 H           1 MOL       0.0938
     59 H23        14.3813   18.9951   38.6676 H           1 MOL       0.0671
     60 H24        12.8471   16.4125   38.0623 H           1 MOL       0.0648
     61 H25        15.8613   16.9346   37.9147 H           1 MOL       0.0649
     62 H26        14.2342   15.1417   39.8072 H           1 MOL       0.0647
     63 H27        16.3805   14.0530   39.3122 H           1 MOL       0.0584
     64 H28        16.3188   14.6391   40.9785 H           1 MOL       0.0584
     65 H29        12.2577   19.2504   37.9710 H           1 MOL       0.2101
     66 H30        12.8643   18.1765   36.5719 H           1 MOL       0.2100
     67 H31        17.5003   16.4536   40.3272 H           1 MOL       0.2095
     68 H32        15.9952   14.0865   35.7350 H           1 MOL       0.0524
     69 H33        17.0510   14.7852   36.9705 H           1 MOL       0.0524
     70 H34        16.3098   15.8265   35.7313 H           1 MOL       0.0524
@<TRIPOS>BOND
     1     1     2   2
     2     1     4   1
     3     1    11   1
     4     2     3   1
     5     4     5   1
     6     4     6   1
     7     6     7   1
     8     6     8   1
     9     8     9   1
    10     8    10   1
    11     9    14   1
    12    10    11   1
    13    10    12   1
    14    12    13   1
    15    14    15   1
    16    14    23   1
    17    15    16   1
    18    15    20   1
    19    16    17   1
    20    16    21   1
    21    17    18   1
    22    17    22   1
    23    18    19   1
    24    18    23   1
    25    19    24   1
    26    22    25   1
    27    25    26   1
    28    25    34   1
    29    26    27   1
    30    26    31   1
    31    27    28   1
    32    27    32   1
    33    28    29   1
    34    28    33   1
    35    29    30   1
    36    29    34   1
    37    30    35   1
    38    33    36   1
    39     3    37   1
    40     4    38   1
    41     5    39   1
    42     6    40   1
    43     7    41   1
    44     8    42   1
    45    10    43   1
    46    11    44   1
    47    12    45   1
    48    12    46   1
    49    13    47   1
    50    14    48   1
    51    15    49   1
    52    16    50   1
    53    17    51   1
    54    18    52   1
    55    19    53   1
    56    19    54   1
    57    20    55   1
    58    21    56   1
    59    24    57   1
    60    25    58   1
    61    26    59   1
    62    27    60   1
    63    28    61   1
    64    29    62   1
    65    30    63   1
    66    30    64   1
    67    31    65   1
    68    32    66   1
    69    35    67   1
    70    36    68   1
    71    36    69   1
    72    36    70   1
@<TRIPOS>SUBSTRUCTURE
     1  MOL      1

