@<TRIPOS>MOLECULE
1u33_ligand_010
    70    72
SMALL
GAST_HUCK
****
This file was generated by PARSER (from files_GN.cpp)

@<TRIPOS>ATOM
      1 CA1         6.5166   15.5829   39.2585 C.2         1 MOL       0.1322
      2 NA1         5.6897   16.2970   38.4666 N.2         1 MOL      -0.2068
      3 OA7         6.0630   17.0412   37.4663 O.3         1 MOL      -0.3046
      4 CA2         5.8941   14.8402   40.3785 C.3         1 MOL       0.1504
      5 OA2         5.3379   15.7803   41.2986 O.3         1 MOL      -0.3713
      6 CA3         6.8785   13.8982   41.1348 C.3         1 MOL       0.1237
      7 OA3         6.9259   12.6209   40.4934 O.3         1 MOL      -0.3840
      8 CA4         8.3142   14.4895   41.2235 C.3         1 MOL       0.1169
      9 OA4         8.3245   15.6632   42.0686 O.3         1 MOL      -0.3402
     10 CA5         8.8501   14.9620   39.8309 C.3         1 MOL       0.0902
     11 NA5         7.8489   15.6014   39.0265 N.pl3       1 MOL      -0.2990
     12 CA6         9.6087   13.8951   38.9908 C.3         1 MOL       0.0694
     13 OA6         8.7576   13.0770   38.1945 O.3         1 MOL      -0.3927
     14 CB1         8.8843   15.6482   43.3974 C.3         1 MOL       0.1884
     15 CB2         9.3490   17.0849   43.7458 C.3         1 MOL       0.1341
     16 CB3        10.5282   17.5058   42.8162 C.3         1 MOL       0.1144
     17 CB4        11.6846   16.4665   42.7665 C.3         1 MOL       0.1184
     18 CB5        11.1816   14.9869   42.7956 C.3         1 MOL       0.1134
     19 CB6        12.2778   14.0068   43.2998 C.3         1 MOL       0.0730
     20 OB2         8.2365   17.9779   43.6024 O.3         1 MOL      -0.3841
     21 OB3        11.0870   18.7475   43.2506 O.3         1 MOL      -0.3864
     22 OB4        12.3509   16.6231   41.5037 O.3         1 MOL      -0.3401
     23 OB5        10.0032   14.7699   43.6008 O.3         1 MOL      -0.3405
     24 OB6        12.0223   13.5560   44.6341 O.3         1 MOL      -0.3924
     25 CD1        13.4540   17.5204   41.3125 C.3         1 MOL       0.1884
     26 CD2        13.2728   18.2565   39.9548 C.3         1 MOL       0.1341
     27 CD3        13.4414   17.2821   38.7529 C.3         1 MOL       0.1143
     28 CD4        14.7364   16.4339   38.8805 C.3         1 MOL       0.1150
     29 CD5        14.8056   15.7650   40.2910 C.3         1 MOL       0.1133
     30 CD6        16.1041   14.9540   40.5324 C.3         1 MOL       0.0730
     31 OD2        11.9796   18.8660   39.8772 O.3         1 MOL      -0.3841
     32 OD3        13.4782   18.0183   37.5266 O.3         1 MOL      -0.3864
     33 OD4        14.7412   15.3988   37.8717 O.3         1 MOL      -0.3745
     34 OD5        14.6861   16.7733   41.3270 O.3         1 MOL      -0.3405
     35 OD6        17.2137   15.4453   39.7834 O.3         1 MOL      -0.3924
     36 CD7        15.7411   15.5054   36.8453 C.3         1 MOL       0.0370
     37 H1          5.5251   17.8542   37.5686 H           1 MOL       0.2523
     38 H2          5.0683   14.2377   39.9864 H           1 MOL       0.0843
     39 H3          4.6047   16.2196   40.8158 H           1 MOL       0.2137
     40 H4          6.5001   13.7171   42.1486 H           1 MOL       0.0674
     41 H5          6.1341   12.1318   40.7929 H           1 MOL       0.2103
     42 H6          8.9751   13.7203   41.6307 H           1 MOL       0.0650
     43 H7          9.5989   15.7354   40.0320 H           1 MOL       0.0603
     44 H8          8.1643   16.0993   38.2623 H           1 MOL       0.1812
     45 H9         10.2178   13.2542   39.6359 H           1 MOL       0.0581
     46 H10        10.2886   14.4051   38.3017 H           1 MOL       0.0581
     47 H11         8.2393   12.5459   38.8243 H           1 MOL       0.2095
     48 H12         8.1040   15.3502   44.0971 H           1 MOL       0.0938
     49 H13         9.6809   17.1239   44.7918 H           1 MOL       0.0671
     50 H14        10.1255   17.6545   41.8059 H           1 MOL       0.0648
     51 H15        12.3559   16.6318   43.6147 H           1 MOL       0.0651
     52 H16        10.9421   14.6821   41.7758 H           1 MOL       0.0647
     53 H17        13.2729   14.4621   43.2624 H           1 MOL       0.0584
     54 H18        12.3001   13.1157   42.6662 H           1 MOL       0.0584
     55 H19         8.6154   18.8841   43.5965 H           1 MOL       0.2101
     56 H20        10.7090   19.4399   42.6690 H           1 MOL       0.2100
     57 H21        12.2393   14.3010   45.2411 H           1 MOL       0.2095
     58 H22        13.4979   18.2682   42.1049 H           1 MOL       0.0938
     59 H23        14.0293   19.0440   39.8810 H           1 MOL       0.0671
     60 H24        12.5772   16.6105   38.7154 H           1 MOL       0.0648
     61 H25        15.5952   17.1081   38.7894 H           1 MOL       0.0649
     62 H26        13.9818   15.0505   40.3879 H           1 MOL       0.0647
     63 H27        15.9479   13.9108   40.2368 H           1 MOL       0.0584
     64 H28        16.3530   14.9670   41.5989 H           1 MOL       0.0584
     65 H29        11.9378   19.5498   40.5824 H           1 MOL       0.2101
     66 H30        12.6192   18.4901   37.4428 H           1 MOL       0.2100
     67 H31        17.4231   16.3320   40.1407 H           1 MOL       0.2095
     68 H32        15.5777   14.7116   36.1156 H           1 MOL       0.0524
     69 H33        16.7381   15.3815   37.2729 H           1 MOL       0.0524
     70 H34        15.6809   16.4659   36.3300 H           1 MOL       0.0524
@<TRIPOS>BOND
     1     1     2   2
     2     1     4   1
     3     1    11   1
     4     2     3   1
     5     4     5   1
     6     4     6   1
     7     6     7   1
     8     6     8   1
     9     8     9   1
    10     8    10   1
    11     9    14   1
    12    10    11   1
    13    10    12   1
    14    12    13   1
    15    14    15   1
    16    14    23   1
    17    15    16   1
    18    15    20   1
    19    16    17   1
    20    16    21   1
    21    17    18   1
    22    17    22   1
    23    18    19   1
    24    18    23   1
    25    19    24   1
    26    22    25   1
    27    25    26   1
    28    25    34   1
    29    26    27   1
    30    26    31   1
    31    27    28   1
    32    27    32   1
    33    28    29   1
    34    28    33   1
    35    29    30   1
    36    29    34   1
    37    30    35   1
    38    33    36   1
    39     3    37   1
    40     4    38   1
    41     5    39   1
    42     6    40   1
    43     7    41   1
    44     8    42   1
    45    10    43   1
    46    11    44   1
    47    12    45   1
    48    12    46   1
    49    13    47   1
    50    14    48   1
    51    15    49   1
    52    16    50   1
    53    17    51   1
    54    18    52   1
    55    19    53   1
    56    19    54   1
    57    20    55   1
    58    21    56   1
    59    24    57   1
    60    25    58   1
    61    26    59   1
    62    27    60   1
    63    28    61   1
    64    29    62   1
    65    30    63   1
    66    30    64   1
    67    31    65   1
    68    32    66   1
    69    35    67   1
    70    36    68   1
    71    36    69   1
    72    36    70   1
@<TRIPOS>SUBSTRUCTURE
     1  MOL      1

