@<TRIPOS>MOLECULE
1u33_ligand_057
    70    72
SMALL
GAST_HUCK
****
This file was generated by PARSER (from files_GN.cpp)

@<TRIPOS>ATOM
      1 CA1        13.9224   13.3406   35.2908 C.2         1 MOL       0.1322
      2 NA1        13.2701   12.2707   34.7938 N.2         1 MOL      -0.2068
      3 OA7        12.0673   12.3106   34.2965 O.3         1 MOL      -0.3046
      4 CA2        15.2772   13.1212   35.8604 C.3         1 MOL       0.1504
      5 OA2        15.1574   12.3629   37.0620 O.3         1 MOL      -0.3713
      6 CA3        16.0363   14.4482   36.1391 C.3         1 MOL       0.1237
      7 OA3        16.5663   14.9732   34.9177 O.3         1 MOL      -0.3840
      8 CA4        15.1157   15.5139   36.8028 C.3         1 MOL       0.1169
      9 OA4        14.7442   15.0454   38.1174 O.3         1 MOL      -0.3402
     10 CA5        13.8139   15.7449   35.9500 C.3         1 MOL       0.0902
     11 NA5        13.3272   14.5654   35.2948 N.pl3       1 MOL      -0.2990
     12 CA6        13.9366   16.8927   34.9095 C.3         1 MOL       0.0694
     13 OA6        14.4931   18.0597   35.4966 O.3         1 MOL      -0.3927
     14 CB1        15.2108   15.7934   39.2574 C.3         1 MOL       0.1884
     15 CB2        14.9625   15.0403   40.5911 C.3         1 MOL       0.1341
     16 CB3        13.4578   15.0646   40.9925 C.3         1 MOL       0.1144
     17 CB4        12.8879   16.5157   40.9625 C.3         1 MOL       0.1184
     18 CB5        13.1910   17.1384   39.5671 C.3         1 MOL       0.1134
     19 CB6        12.7584   18.6122   39.4012 C.3         1 MOL       0.0730
     20 OB2        15.4264   13.7022   40.4623 O.3         1 MOL      -0.3841
     21 OB3        13.3250   14.5081   42.2977 O.3         1 MOL      -0.3864
     22 OB4        11.4582   16.4605   41.2225 O.3         1 MOL      -0.3401
     23 OB5        14.6230   17.1105   39.3137 O.3         1 MOL      -0.3405
     24 OB6        11.4067   18.7112   38.9657 O.3         1 MOL      -0.3924
     25 CD1        10.8138   17.5167   41.9797 C.3         1 MOL       0.1884
     26 CD2        10.7442   17.2257   43.5032 C.3         1 MOL       0.1341
     27 CD3         9.7854   16.0520   43.8254 C.3         1 MOL       0.1143
     28 CD4         8.3890   16.2603   43.1677 C.3         1 MOL       0.1150
     29 CD5         8.5335   16.6246   41.6540 C.3         1 MOL       0.1133
     30 CD6         7.1851   17.0543   41.0231 C.3         1 MOL       0.0730
     31 OD2        12.0434   16.9526   44.0229 O.3         1 MOL      -0.3841
     32 OD3         9.6508   15.9120   45.2374 O.3         1 MOL      -0.3864
     33 OD4         7.5578   15.0805   43.2701 O.3         1 MOL      -0.3745
     34 OD5         9.4756   17.7084   41.4652 O.3         1 MOL      -0.3405
     35 OD6         6.1999   16.0246   41.1092 O.3         1 MOL      -0.3924
     36 CD7         6.9097   14.8328   44.5406 C.3         1 MOL       0.0370
     37 H1         11.7225   11.4061   34.4922 H           1 MOL       0.2523
     38 H2         15.8632   12.5346   35.1508 H           1 MOL       0.0843
     39 H3         14.7463   11.5092   36.8005 H           1 MOL       0.2137
     40 H4         16.8889   14.2510   36.7921 H           1 MOL       0.0674
     41 H5         17.4124   14.4974   34.7661 H           1 MOL       0.2103
     42 H6         15.6823   16.4512   36.8686 H           1 MOL       0.0650
     43 H7         13.0214   16.0250   36.6494 H           1 MOL       0.0603
     44 H8         12.4573   14.6392   34.8768 H           1 MOL       0.1812
     45 H9         12.9492   17.1599   34.5247 H           1 MOL       0.0581
     46 H10        14.5769   16.5904   34.0785 H           1 MOL       0.0581
     47 H11        13.9449   18.2651   36.2832 H           1 MOL       0.2095
     48 H12        16.2851   15.9322   39.1701 H           1 MOL       0.0938
     49 H13        15.5412   15.5200   41.3977 H           1 MOL       0.0671
     50 H14        12.8923   14.4430   40.2994 H           1 MOL       0.0648
     51 H15        13.4148   17.1083   41.7319 H           1 MOL       0.0651
     52 H16        12.6713   16.5619   38.7877 H           1 MOL       0.0647
     53 H17        13.4033   19.0924   38.6454 H           1 MOL       0.0584
     54 H18        12.8718   19.1566   40.3458 H           1 MOL       0.0584
     55 H19        16.4160   13.7721   40.4580 H           1 MOL       0.2101
     56 H20        12.3748   14.3028   42.3979 H           1 MOL       0.2100
     57 H21        11.4429   19.1221   38.0682 H           1 MOL       0.2095
     58 H22        11.3420   18.4607   41.8459 H           1 MOL       0.0938
     59 H23        10.3826   18.1346   44.0004 H           1 MOL       0.0671
     60 H24        10.2130   15.1228   43.4557 H           1 MOL       0.0648
     61 H25         7.8823   17.1059   43.6612 H           1 MOL       0.0649
     62 H26         8.9002   15.7477   41.1159 H           1 MOL       0.0647
     63 H27         7.3203   17.2986   39.9781 H           1 MOL       0.0584
     64 H28         6.7970   17.9366   41.5374 H           1 MOL       0.0584
     65 H29        11.8967   16.7445   44.9765 H           1 MOL       0.2101
     66 H30         8.8808   16.4661   45.5073 H           1 MOL       0.2100
     67 H31         6.5232   15.2996   40.5343 H           1 MOL       0.2095
     68 H32         6.2169   14.0030   44.3809 H           1 MOL       0.0524
     69 H33         6.3489   15.7181   44.8804 H           1 MOL       0.0524
     70 H34         7.6531   14.5410   45.2998 H           1 MOL       0.0524
@<TRIPOS>BOND
     1     1     2   2
     2     1     4   1
     3     1    11   1
     4     2     3   1
     5     4     5   1
     6     4     6   1
     7     6     7   1
     8     6     8   1
     9     8     9   1
    10     8    10   1
    11     9    14   1
    12    10    11   1
    13    10    12   1
    14    12    13   1
    15    14    15   1
    16    14    23   1
    17    15    16   1
    18    15    20   1
    19    16    17   1
    20    16    21   1
    21    17    18   1
    22    17    22   1
    23    18    19   1
    24    18    23   1
    25    19    24   1
    26    22    25   1
    27    25    26   1
    28    25    34   1
    29    26    27   1
    30    26    31   1
    31    27    28   1
    32    27    32   1
    33    28    29   1
    34    28    33   1
    35    29    30   1
    36    29    34   1
    37    30    35   1
    38    33    36   1
    39     3    37   1
    40     4    38   1
    41     5    39   1
    42     6    40   1
    43     7    41   1
    44     8    42   1
    45    10    43   1
    46    11    44   1
    47    12    45   1
    48    12    46   1
    49    13    47   1
    50    14    48   1
    51    15    49   1
    52    16    50   1
    53    17    51   1
    54    18    52   1
    55    19    53   1
    56    19    54   1
    57    20    55   1
    58    21    56   1
    59    24    57   1
    60    25    58   1
    61    26    59   1
    62    27    60   1
    63    28    61   1
    64    29    62   1
    65    30    63   1
    66    30    64   1
    67    31    65   1
    68    32    66   1
    69    35    67   1
    70    36    68   1
    71    36    69   1
    72    36    70   1
@<TRIPOS>SUBSTRUCTURE
     1  MOL      1

