@<TRIPOS>MOLECULE
1u33_ligand_029
    70    72
SMALL
GAST_HUCK
****
This file was generated by PARSER (from files_GN.cpp)

@<TRIPOS>ATOM
      1 CA1        13.7849   16.7033   39.5848 C.2         1 MOL       0.1322
      2 NA1        15.0536   17.1247   39.8034 N.2         1 MOL      -0.2068
      3 OA7        15.7881   16.7313   40.8126 O.3         1 MOL      -0.3046
      4 CA2        13.0657   17.1920   38.3812 C.3         1 MOL       0.1504
      5 OA2        13.2540   18.6123   38.2609 O.3         1 MOL      -0.3713
      6 CA3        11.5367   16.8732   38.3948 C.3         1 MOL       0.1237
      7 OA3        11.0682   17.0242   37.0544 O.3         1 MOL      -0.3840
      8 CA4        11.2255   15.4378   38.9447 C.3         1 MOL       0.1169
      9 OA4         9.8221   15.1028   39.2004 O.3         1 MOL      -0.3402
     10 CA5        11.9262   15.2465   40.3354 C.3         1 MOL       0.0902
     11 NA5        13.2331   15.8120   40.4429 N.pl3       1 MOL      -0.2990
     12 CA6        12.0038   13.7433   40.7264 C.3         1 MOL       0.0694
     13 OA6        12.3221   13.5927   42.1101 O.3         1 MOL      -0.3927
     14 CB1         8.7260   15.4389   38.3146 C.3         1 MOL       0.1884
     15 CB2         7.8818   16.5659   38.9598 C.3         1 MOL       0.1341
     16 CB3         7.0461   16.0009   40.1363 C.3         1 MOL       0.1144
     17 CB4         6.1463   14.8374   39.6654 C.3         1 MOL       0.1184
     18 CB5         6.9934   13.7303   38.9532 C.3         1 MOL       0.1134
     19 CB6         6.1581   12.6887   38.1426 C.3         1 MOL       0.0730
     20 OB2         8.7582   17.6057   39.4060 O.3         1 MOL      -0.3841
     21 OB3         6.2322   17.0167   40.7202 O.3         1 MOL      -0.3864
     22 OB4         5.2617   14.4218   40.7428 O.3         1 MOL      -0.3401
     23 OB5         7.9296   14.2868   37.9939 O.3         1 MOL      -0.3405
     24 OB6         4.8629   12.4112   38.6791 O.3         1 MOL      -0.3924
     25 CD1         5.5961   13.3935   41.7134 C.3         1 MOL       0.1884
     26 CD2         4.3633   13.1346   42.6355 C.3         1 MOL       0.1341
     27 CD3         4.2336   14.2392   43.7189 C.3         1 MOL       0.1143
     28 CD4         5.5717   14.4051   44.5013 C.3         1 MOL       0.1150
     29 CD5         6.7330   14.6725   43.5016 C.3         1 MOL       0.1133
     30 CD6         8.1242   14.7491   44.1893 C.3         1 MOL       0.0730
     31 OD2         3.1646   13.0502   41.8679 O.3         1 MOL      -0.3841
     32 OD3         3.1830   13.9417   44.6340 O.3         1 MOL      -0.3864
     33 OD4         5.4621   15.5177   45.4106 O.3         1 MOL      -0.3745
     34 OD5         6.7931   13.6532   42.4831 O.3         1 MOL      -0.3405
     35 OD6         8.6400   16.0823   44.2151 O.3         1 MOL      -0.3924
     36 CD7         5.3971   15.1950   46.8086 C.3         1 MOL       0.0370
     37 H1         16.6648   17.1367   40.6403 H           1 MOL       0.2523
     38 H2         13.5415   16.7066   37.5219 H           1 MOL       0.0843
     39 H3         12.6895   18.8819   37.5134 H           1 MOL       0.2137
     40 H4         11.0320   17.5997   39.0406 H           1 MOL       0.0674
     41 H5         11.0840   17.9874   36.8894 H           1 MOL       0.2103
     42 H6         11.6188   14.7042   38.2199 H           1 MOL       0.0650
     43 H7         11.3177   15.7473   41.0846 H           1 MOL       0.0603
     44 H8         13.7477   15.5701   41.2263 H           1 MOL       0.1812
     45 H9         12.7848   13.2378   40.1360 H           1 MOL       0.0581
     46 H10        11.0478   13.2408   40.5367 H           1 MOL       0.0581
     47 H11        11.6311   14.1137   42.5808 H           1 MOL       0.2095
     48 H12         9.0890   15.7949   37.3527 H           1 MOL       0.0938
     49 H13         7.2017   16.9723   38.2041 H           1 MOL       0.0671
     50 H14         7.7349   15.6349   40.9078 H           1 MOL       0.0648
     51 H15         5.4724   15.2545   38.9125 H           1 MOL       0.0651
     52 H16         7.5833   13.2053   39.7046 H           1 MOL       0.0647
     53 H17         6.7111   11.7460   38.0993 H           1 MOL       0.0584
     54 H18         6.0117   13.0271   37.1080 H           1 MOL       0.0584
     55 H19         8.1763   18.3071   39.7626 H           1 MOL       0.2101
     56 H20         6.8091   17.5001   41.3579 H           1 MOL       0.2100
     57 H21         4.3423   13.2272   38.5065 H           1 MOL       0.2095
     58 H22         5.7799   12.4676   41.1591 H           1 MOL       0.0938
     59 H23         4.4919   12.1697   43.1239 H           1 MOL       0.0671
     60 H24         3.9945   15.1856   43.2324 H           1 MOL       0.0648
     61 H25         5.7865   13.4597   45.0262 H           1 MOL       0.0649
     62 H26         6.5372   15.6364   43.0196 H           1 MOL       0.0647
     63 H27         8.8600   14.1477   43.6382 H           1 MOL       0.0584
     64 H28         8.0863   14.3738   45.2247 H           1 MOL       0.0584
     65 H29         3.4514   12.8235   40.9562 H           1 MOL       0.2101
     66 H30         2.4592   14.5772   44.4322 H           1 MOL       0.2100
     67 H31         8.1391   16.5643   44.9158 H           1 MOL       0.2095
     68 H32         5.1117   16.0989   47.3444 H           1 MOL       0.0524
     69 H33         6.3756   14.8672   47.1618 H           1 MOL       0.0524
     70 H34         4.6594   14.4187   47.0203 H           1 MOL       0.0524
@<TRIPOS>BOND
     1     1     2   2
     2     1     4   1
     3     1    11   1
     4     2     3   1
     5     4     5   1
     6     4     6   1
     7     6     7   1
     8     6     8   1
     9     8     9   1
    10     8    10   1
    11     9    14   1
    12    10    11   1
    13    10    12   1
    14    12    13   1
    15    14    15   1
    16    14    23   1
    17    15    16   1
    18    15    20   1
    19    16    17   1
    20    16    21   1
    21    17    18   1
    22    17    22   1
    23    18    19   1
    24    18    23   1
    25    19    24   1
    26    22    25   1
    27    25    26   1
    28    25    34   1
    29    26    27   1
    30    26    31   1
    31    27    28   1
    32    27    32   1
    33    28    29   1
    34    28    33   1
    35    29    30   1
    36    29    34   1
    37    30    35   1
    38    33    36   1
    39     3    37   1
    40     4    38   1
    41     5    39   1
    42     6    40   1
    43     7    41   1
    44     8    42   1
    45    10    43   1
    46    11    44   1
    47    12    45   1
    48    12    46   1
    49    13    47   1
    50    14    48   1
    51    15    49   1
    52    16    50   1
    53    17    51   1
    54    18    52   1
    55    19    53   1
    56    19    54   1
    57    20    55   1
    58    21    56   1
    59    24    57   1
    60    25    58   1
    61    26    59   1
    62    27    60   1
    63    28    61   1
    64    29    62   1
    65    30    63   1
    66    30    64   1
    67    31    65   1
    68    32    66   1
    69    35    67   1
    70    36    68   1
    71    36    69   1
    72    36    70   1
@<TRIPOS>SUBSTRUCTURE
     1  MOL      1

