@<TRIPOS>MOLECULE
1u33_ligand_038
    70    72
SMALL
GAST_HUCK
****
This file was generated by PARSER (from files_GN.cpp)

@<TRIPOS>ATOM
      1 CA1         5.5053   14.2431   43.0854 C.2         1 MOL       0.1322
      2 NA1         4.4521   13.5316   43.5476 N.2         1 MOL      -0.2068
      3 OA7         3.5434   12.9426   42.8208 O.3         1 MOL      -0.3046
      4 CA2         6.4793   14.7805   44.0603 C.3         1 MOL       0.1504
      5 OA2         5.7808   15.4119   45.1307 O.3         1 MOL      -0.3713
      6 CA3         7.4956   15.7800   43.4410 C.3         1 MOL       0.1237
      7 OA3         8.5819   15.8918   44.3586 O.3         1 MOL      -0.3840
      8 CA4         7.9844   15.3387   42.0327 C.3         1 MOL       0.1169
      9 OA4         8.7797   16.3314   41.3518 O.3         1 MOL      -0.3402
     10 CA5         6.7426   15.0844   41.1070 C.3         1 MOL       0.0902
     11 NA5         5.6594   14.4024   41.7483 N.pl3       1 MOL      -0.2990
     12 CA6         7.1420   14.3213   39.8121 C.3         1 MOL       0.0694
     13 OA6         6.0991   14.3848   38.8345 O.3         1 MOL      -0.3927
     14 CB1        10.0549   16.7397   41.8652 C.3         1 MOL       0.1884
     15 CB2        10.6490   17.8068   40.9150 C.3         1 MOL       0.1341
     16 CB3        12.0515   18.2425   41.4441 C.3         1 MOL       0.1144
     17 CB4        12.9933   17.0123   41.6274 C.3         1 MOL       0.1184
     18 CB5        12.2909   15.8891   42.4751 C.3         1 MOL       0.1134
     19 CB6        12.2836   16.0642   44.0255 C.3         1 MOL       0.0730
     20 OB2        10.7082   17.3298   39.5739 O.3         1 MOL      -0.3841
     21 OB3        11.9215   18.9520   42.6848 O.3         1 MOL      -0.3864
     22 OB4        13.3496   16.4314   40.3558 O.3         1 MOL      -0.3401
     23 OB5        10.9495   15.6090   41.9743 O.3         1 MOL      -0.3405
     24 OB6        13.1941   17.0687   44.4902 O.3         1 MOL      -0.3924
     25 CD1        14.3087   17.1006   39.4968 C.3         1 MOL       0.1884
     26 CD2        13.6236   17.6697   38.2247 C.3         1 MOL       0.1341
     27 CD3        13.0831   16.5083   37.3368 C.3         1 MOL       0.1143
     28 CD4        14.2108   15.4759   37.0217 C.3         1 MOL       0.1150
     29 CD5        14.9178   15.0294   38.3421 C.3         1 MOL       0.1133
     30 CD6        16.1612   14.1510   38.0485 C.3         1 MOL       0.0730
     31 OD2        12.5738   18.5661   38.5912 O.3         1 MOL      -0.3841
     32 OD3        12.5567   17.0371   36.1108 O.3         1 MOL      -0.3864
     33 OD4        13.6358   14.2979   36.4046 O.3         1 MOL      -0.3745
     34 OD5        15.3468   16.1653   39.1328 O.3         1 MOL      -0.3405
     35 OD6        16.8642   13.8357   39.2532 O.3         1 MOL      -0.3924
     36 CD7        13.5878   14.2857   34.9687 C.3         1 MOL       0.0370
     37 H1          4.0289   12.3245   42.2386 H           1 MOL       0.2523
     38 H2          7.0185   13.9277   44.4729 H           1 MOL       0.0843
     39 H3          6.4758   15.7139   45.7470 H           1 MOL       0.2137
     40 H4          7.0288   16.7630   43.3436 H           1 MOL       0.0674
     41 H5          8.2805   16.5184   45.0466 H           1 MOL       0.2103
     42 H6          8.5505   14.4090   42.1367 H           1 MOL       0.0650
     43 H7          6.3431   16.0552   40.7988 H           1 MOL       0.0603
     44 H8          4.9421   14.0852   41.1717 H           1 MOL       0.1812
     45 H9          7.3494   13.2686   40.0387 H           1 MOL       0.0581
     46 H10         8.0419   14.7662   39.3727 H           1 MOL       0.0581
     47 H11         6.4432   13.8698   38.0713 H           1 MOL       0.2095
     48 H12         9.8914   17.2255   42.8263 H           1 MOL       0.0938
     49 H13         9.9977   18.6832   40.9182 H           1 MOL       0.0671
     50 H14        12.5176   18.9314   40.7328 H           1 MOL       0.0648
     51 H15        13.9160   17.3136   42.1380 H           1 MOL       0.0651
     52 H16        12.8715   14.9684   42.2989 H           1 MOL       0.0647
     53 H17        12.5706   15.1154   44.5000 H           1 MOL       0.0584
     54 H18        11.2849   16.3218   44.3868 H           1 MOL       0.0584
     55 H19        11.0689   16.4210   39.6350 H           1 MOL       0.2101
     56 H20        11.2172   19.6071   42.4802 H           1 MOL       0.2100
     57 H21        12.7490   17.9034   44.2370 H           1 MOL       0.2095
     58 H22        14.8005   17.9285   40.0137 H           1 MOL       0.0938
     59 H23        14.3754   18.2302   37.6501 H           1 MOL       0.0671
     60 H24        12.2684   16.0010   37.8751 H           1 MOL       0.0648
     61 H25        14.9666   15.9671   36.3885 H           1 MOL       0.0649
     62 H26        14.2181   14.4262   38.9309 H           1 MOL       0.0647
     63 H27        16.8381   14.6878   37.3778 H           1 MOL       0.0584
     64 H28        15.8628   13.2172   37.5614 H           1 MOL       0.0584
     65 H29        12.4468   19.1535   37.8105 H           1 MOL       0.2101
     66 H30        12.1140   17.8742   36.3607 H           1 MOL       0.2100
     67 H31        16.2143   13.3518   39.8059 H           1 MOL       0.2095
     68 H32        13.0849   13.3711   34.6655 H           1 MOL       0.0524
     69 H33        14.5939   14.2817   34.5443 H           1 MOL       0.0524
     70 H34        13.0297   15.1327   34.5659 H           1 MOL       0.0524
@<TRIPOS>BOND
     1     1     2   2
     2     1     4   1
     3     1    11   1
     4     2     3   1
     5     4     5   1
     6     4     6   1
     7     6     7   1
     8     6     8   1
     9     8     9   1
    10     8    10   1
    11     9    14   1
    12    10    11   1
    13    10    12   1
    14    12    13   1
    15    14    15   1
    16    14    23   1
    17    15    16   1
    18    15    20   1
    19    16    17   1
    20    16    21   1
    21    17    18   1
    22    17    22   1
    23    18    19   1
    24    18    23   1
    25    19    24   1
    26    22    25   1
    27    25    26   1
    28    25    34   1
    29    26    27   1
    30    26    31   1
    31    27    28   1
    32    27    32   1
    33    28    29   1
    34    28    33   1
    35    29    30   1
    36    29    34   1
    37    30    35   1
    38    33    36   1
    39     3    37   1
    40     4    38   1
    41     5    39   1
    42     6    40   1
    43     7    41   1
    44     8    42   1
    45    10    43   1
    46    11    44   1
    47    12    45   1
    48    12    46   1
    49    13    47   1
    50    14    48   1
    51    15    49   1
    52    16    50   1
    53    17    51   1
    54    18    52   1
    55    19    53   1
    56    19    54   1
    57    20    55   1
    58    21    56   1
    59    24    57   1
    60    25    58   1
    61    26    59   1
    62    27    60   1
    63    28    61   1
    64    29    62   1
    65    30    63   1
    66    30    64   1
    67    31    65   1
    68    32    66   1
    69    35    67   1
    70    36    68   1
    71    36    69   1
    72    36    70   1
@<TRIPOS>SUBSTRUCTURE
     1  MOL      1

