@<TRIPOS>MOLECULE
1u33_ligand_082
    70    72
SMALL
GAST_HUCK
****
This file was generated by PARSER (from files_GN.cpp)

@<TRIPOS>ATOM
      1 CA1        11.7002   17.4591   43.8639 C.2         1 MOL       0.1322
      2 NA1        12.2283   18.3850   44.6945 N.2         1 MOL      -0.2068
      3 OA7        11.6196   19.4661   45.0567 O.3         1 MOL      -0.3046
      4 CA2        12.4762   16.2149   43.6513 C.3         1 MOL       0.1504
      5 OA2        13.6460   16.4944   42.8962 O.3         1 MOL      -0.3713
      6 CA3        11.6659   15.0681   42.9810 C.3         1 MOL       0.1237
      7 OA3        10.9907   14.3234   44.0070 O.3         1 MOL      -0.3840
      8 CA4        10.6187   15.5465   41.9313 C.3         1 MOL       0.1169
      9 OA4        11.1325   15.6466   40.5755 O.3         1 MOL      -0.3402
     10 CA5         9.7989   16.8019   42.3997 C.3         1 MOL       0.0902
     11 NA5        10.5099   17.7015   43.2573 N.pl3       1 MOL      -0.2990
     12 CA6         8.4462   16.4614   43.0933 C.3         1 MOL       0.0694
     13 OA6         8.6122   15.8934   44.3936 O.3         1 MOL      -0.3927
     14 CB1        11.7189   16.8437   40.0191 C.3         1 MOL       0.1884
     15 CB2        11.0641   17.1641   38.6411 C.3         1 MOL       0.1341
     16 CB3        11.5875   16.2252   37.5094 C.3         1 MOL       0.1144
     17 CB4        13.1476   16.1499   37.5058 C.3         1 MOL       0.1184
     18 CB5        13.6362   15.7638   38.9334 C.3         1 MOL       0.1134
     19 CB6        15.1796   15.7126   39.0928 C.3         1 MOL       0.0730
     20 OB2         9.6396   17.0642   38.7349 O.3         1 MOL      -0.3841
     21 OB3        11.1104   16.6889   36.2484 O.3         1 MOL      -0.3864
     22 OB4        13.8231   15.3201   36.5277 O.3         1 MOL      -0.3401
     23 OB5        13.1477   16.7191   39.8911 O.3         1 MOL      -0.3405
     24 OB6        15.8482   16.5825   38.1798 O.3         1 MOL      -0.3924
     25 CD1        13.1994   14.2517   35.7846 C.3         1 MOL       0.1884
     26 CD2        14.1083   12.9881   35.7722 C.3         1 MOL       0.1341
     27 CD3        15.4015   13.2264   34.9490 C.3         1 MOL       0.1143
     28 CD4        15.0472   13.7547   33.5281 C.3         1 MOL       0.1150
     29 CD5        14.1226   15.0163   33.6323 C.3         1 MOL       0.1133
     30 CD6        13.6303   15.5020   32.2431 C.3         1 MOL       0.0730
     31 OD2        14.4152   12.5946   37.1047 O.3         1 MOL      -0.3841
     32 OD3        16.1638   12.0273   34.8529 O.3         1 MOL      -0.3864
     33 OD4        16.2025   13.9197   32.6611 O.3         1 MOL      -0.3745
     34 OD5        12.9529   14.7111   34.4336 O.3         1 MOL      -0.3405
     35 OD6        13.1646   16.8544   32.2978 O.3         1 MOL      -0.3924
     36 CD7        17.2002   14.9133   32.9785 C.3         1 MOL       0.0370
     37 H1         12.0168   20.1709   44.4921 H           1 MOL       0.2523
     38 H2         12.8264   15.8659   44.6408 H           1 MOL       0.0843
     39 H3         13.5580   17.4397   42.6209 H           1 MOL       0.2137
     40 H4         12.3590   14.3749   42.4980 H           1 MOL       0.0674
     41 H5         11.6988   13.8755   44.5128 H           1 MOL       0.2103
     42 H6          9.9168   14.7173   41.8231 H           1 MOL       0.0650
     43 H7          9.5504   17.3710   41.4997 H           1 MOL       0.0603
     44 H8         10.1030   18.5692   43.4145 H           1 MOL       0.1812
     45 H9          7.8780   15.7551   42.4839 H           1 MOL       0.0581
     46 H10         7.8385   17.3675   43.1895 H           1 MOL       0.0581
     47 H11         8.1673   16.5148   45.0132 H           1 MOL       0.2095
     48 H12        11.5230   17.6892   40.6932 H           1 MOL       0.0938
     49 H13        11.3064   18.1981   38.3788 H           1 MOL       0.0671
     50 H14        11.1770   15.2206   37.6586 H           1 MOL       0.0648
     51 H15        13.5092   17.1516   37.3014 H           1 MOL       0.0651
     52 H16        13.2571   14.7622   39.1837 H           1 MOL       0.0647
     53 H17        15.5551   14.6902   38.9546 H           1 MOL       0.0584
     54 H18        15.4387   16.0238   40.1093 H           1 MOL       0.0584
     55 H19         9.2966   17.9819   38.6061 H           1 MOL       0.2101
     56 H20        11.2464   17.6791   36.2631 H           1 MOL       0.2100
     57 H21        15.8816   16.0820   37.3289 H           1 MOL       0.2095
     58 H22        12.2442   13.9741   36.2372 H           1 MOL       0.0938
     59 H23        13.5431   12.1711   35.3106 H           1 MOL       0.0671
     60 H24        16.0158   13.9562   35.4762 H           1 MOL       0.0648
     61 H25        14.4569   12.9837   33.0413 H           1 MOL       0.0649
     62 H26        14.6800   15.8403   34.1044 H           1 MOL       0.0647
     63 H27        12.8228   14.8543   31.8859 H           1 MOL       0.0584
     64 H28        14.4502   15.4792   31.5213 H           1 MOL       0.0584
     65 H29        14.3742   11.6144   37.0956 H           1 MOL       0.2101
     66 H30        15.5827   11.3781   34.3927 H           1 MOL       0.2100
     67 H31        12.3418   16.8298   32.8579 H           1 MOL       0.2095
     68 H32        17.9452   14.8961   32.1904 H           1 MOL       0.0524
     69 H33        17.7011   14.6866   33.9183 H           1 MOL       0.0524
     70 H34        16.7690   15.9126   33.0194 H           1 MOL       0.0524
@<TRIPOS>BOND
     1     1     2   2
     2     1     4   1
     3     1    11   1
     4     2     3   1
     5     4     5   1
     6     4     6   1
     7     6     7   1
     8     6     8   1
     9     8     9   1
    10     8    10   1
    11     9    14   1
    12    10    11   1
    13    10    12   1
    14    12    13   1
    15    14    15   1
    16    14    23   1
    17    15    16   1
    18    15    20   1
    19    16    17   1
    20    16    21   1
    21    17    18   1
    22    17    22   1
    23    18    19   1
    24    18    23   1
    25    19    24   1
    26    22    25   1
    27    25    26   1
    28    25    34   1
    29    26    27   1
    30    26    31   1
    31    27    28   1
    32    27    32   1
    33    28    29   1
    34    28    33   1
    35    29    30   1
    36    29    34   1
    37    30    35   1
    38    33    36   1
    39     3    37   1
    40     4    38   1
    41     5    39   1
    42     6    40   1
    43     7    41   1
    44     8    42   1
    45    10    43   1
    46    11    44   1
    47    12    45   1
    48    12    46   1
    49    13    47   1
    50    14    48   1
    51    15    49   1
    52    16    50   1
    53    17    51   1
    54    18    52   1
    55    19    53   1
    56    19    54   1
    57    20    55   1
    58    21    56   1
    59    24    57   1
    60    25    58   1
    61    26    59   1
    62    27    60   1
    63    28    61   1
    64    29    62   1
    65    30    63   1
    66    30    64   1
    67    31    65   1
    68    32    66   1
    69    35    67   1
    70    36    68   1
    71    36    69   1
    72    36    70   1
@<TRIPOS>SUBSTRUCTURE
     1  MOL      1

