@<TRIPOS>MOLECULE
1u33_ligand_079
    70    72
SMALL
GAST_HUCK
****
This file was generated by PARSER (from files_GN.cpp)

@<TRIPOS>ATOM
      1 CA1        10.0025   16.0699   43.7581 C.2         1 MOL       0.1322
      2 NA1         9.3714   15.6582   44.8785 N.2         1 MOL      -0.2068
      3 OA7         8.2511   14.9977   44.9103 O.3         1 MOL      -0.3046
      4 CA2         9.4588   15.8258   42.3942 C.3         1 MOL       0.1504
      5 OA2         9.0697   14.4573   42.2283 O.3         1 MOL      -0.3713
      6 CA3        10.5016   16.1321   41.2874 C.3         1 MOL       0.1237
      7 OA3         9.8534   16.1546   40.0174 O.3         1 MOL      -0.3840
      8 CA4        11.2468   17.4768   41.5360 C.3         1 MOL       0.1169
      9 OA4        12.1882   17.8233   40.4867 O.3         1 MOL      -0.3402
     10 CA5        11.8895   17.5015   42.9695 C.3         1 MOL       0.0902
     11 NA5        11.1143   16.8150   43.9650 N.pl3       1 MOL      -0.2990
     12 CA6        12.1567   18.9408   43.4892 C.3         1 MOL       0.0694
     13 OA6        12.8626   19.7459   42.5477 O.3         1 MOL      -0.3927
     14 CB1        13.1766   16.8700   40.0402 C.3         1 MOL       0.1884
     15 CB2        14.3119   17.6133   39.2954 C.3         1 MOL       0.1341
     16 CB3        15.3433   16.5921   38.7247 C.3         1 MOL       0.1144
     17 CB4        14.6587   15.4662   37.8830 C.3         1 MOL       0.1184
     18 CB5        13.3955   14.8747   38.5987 C.3         1 MOL       0.1134
     19 CB6        13.6219   13.7136   39.6093 C.3         1 MOL       0.0730
     20 OB2        13.7868   18.4329   38.2442 O.3         1 MOL      -0.3841
     21 OB3        16.1126   16.0300   39.7900 O.3         1 MOL      -0.3864
     22 OB4        14.1911   15.9170   36.5831 O.3         1 MOL      -0.3401
     23 OB5        12.5593   15.9251   39.1411 O.3         1 MOL      -0.3405
     24 OB6        14.4441   14.0262   40.7224 O.3         1 MOL      -0.3924
     25 CD1        15.0637   16.5862   35.6387 C.3         1 MOL       0.1884
     26 CD2        14.3338   16.7907   34.2820 C.3         1 MOL       0.1341
     27 CD3        14.2032   15.4428   33.5183 C.3         1 MOL       0.1143
     28 CD4        15.5880   14.7392   33.3920 C.3         1 MOL       0.1150
     29 CD5        16.2596   14.6227   34.7956 C.3         1 MOL       0.1133
     30 CD6        17.6868   14.0160   34.7723 C.3         1 MOL       0.0730
     31 OD2        13.0501   17.3787   34.4915 O.3         1 MOL      -0.3841
     32 OD3        13.6530   15.6909   32.2222 O.3         1 MOL      -0.3864
     33 OD4        15.5484   13.5051   32.6355 O.3         1 MOL      -0.3745
     34 OD5        16.3334   15.9228   35.4221 O.3         1 MOL      -0.3405
     35 OD6        18.4611   14.4128   33.6389 O.3         1 MOL      -0.3924
     36 CD7        14.8175   12.3702   33.1293 C.3         1 MOL       0.0370
     37 H1          7.7547   15.4174   45.6468 H           1 MOL       0.2523
     38 H2          8.5739   16.4567   42.2535 H           1 MOL       0.0843
     39 H3          8.2827   14.3261   42.7977 H           1 MOL       0.2137
     40 H4         11.2327   15.3211   41.2862 H           1 MOL       0.0674
     41 H5          9.5955   15.2255   39.8377 H           1 MOL       0.2103
     42 H6         10.4809   18.2579   41.5053 H           1 MOL       0.0650
     43 H7         12.8538   16.9871   42.9371 H           1 MOL       0.0603
     44 H8         11.4180   16.8951   44.8789 H           1 MOL       0.1812
     45 H9         12.7665   18.8885   44.3946 H           1 MOL       0.0581
     46 H10        11.2186   19.4403   43.7419 H           1 MOL       0.0581
     47 H11        12.1672   20.1340   41.9734 H           1 MOL       0.2095
     48 H12        13.6165   16.3650   40.8972 H           1 MOL       0.0938
     49 H13        14.8227   18.2846   39.9962 H           1 MOL       0.0671
     50 H14        16.0656   17.1233   38.0965 H           1 MOL       0.0648
     51 H15        15.3835   14.6639   37.7339 H           1 MOL       0.0651
     52 H16        12.7720   14.4161   37.8220 H           1 MOL       0.0647
     53 H17        14.0654   12.8602   39.0947 H           1 MOL       0.0584
     54 H18        12.6548   13.3988   40.0018 H           1 MOL       0.0584
     55 H19        13.2314   17.8396   37.6926 H           1 MOL       0.2101
     56 H20        16.7158   16.7488   40.0800 H           1 MOL       0.2100
     57 H21        15.3648   13.9363   40.3937 H           1 MOL       0.2095
     58 H22        15.2727   17.5801   36.0349 H           1 MOL       0.0938
     59 H23        14.9223   17.4893   33.6795 H           1 MOL       0.0671
     60 H24        13.5059   14.8012   34.0666 H           1 MOL       0.0648
     61 H25        16.2109   15.4108   32.7933 H           1 MOL       0.0649
     62 H26        15.6540   13.9708   35.4205 H           1 MOL       0.0647
     63 H27        17.6329   12.9220   34.7851 H           1 MOL       0.0584
     64 H28        18.2324   14.3315   35.6691 H           1 MOL       0.0584
     65 H29        12.7450   17.6612   33.6051 H           1 MOL       0.2101
     66 H30        13.4392   14.8055   31.8577 H           1 MOL       0.2100
     67 H31        18.0831   13.9126   32.8820 H           1 MOL       0.2095
     68 H32        14.8971   11.5750   32.3868 H           1 MOL       0.0524
     69 H33        13.7612   12.6047   33.2702 H           1 MOL       0.0524
     70 H34        15.2412   12.0038   34.0659 H           1 MOL       0.0524
@<TRIPOS>BOND
     1     1     2   2
     2     1     4   1
     3     1    11   1
     4     2     3   1
     5     4     5   1
     6     4     6   1
     7     6     7   1
     8     6     8   1
     9     8     9   1
    10     8    10   1
    11     9    14   1
    12    10    11   1
    13    10    12   1
    14    12    13   1
    15    14    15   1
    16    14    23   1
    17    15    16   1
    18    15    20   1
    19    16    17   1
    20    16    21   1
    21    17    18   1
    22    17    22   1
    23    18    19   1
    24    18    23   1
    25    19    24   1
    26    22    25   1
    27    25    26   1
    28    25    34   1
    29    26    27   1
    30    26    31   1
    31    27    28   1
    32    27    32   1
    33    28    29   1
    34    28    33   1
    35    29    30   1
    36    29    34   1
    37    30    35   1
    38    33    36   1
    39     3    37   1
    40     4    38   1
    41     5    39   1
    42     6    40   1
    43     7    41   1
    44     8    42   1
    45    10    43   1
    46    11    44   1
    47    12    45   1
    48    12    46   1
    49    13    47   1
    50    14    48   1
    51    15    49   1
    52    16    50   1
    53    17    51   1
    54    18    52   1
    55    19    53   1
    56    19    54   1
    57    20    55   1
    58    21    56   1
    59    24    57   1
    60    25    58   1
    61    26    59   1
    62    27    60   1
    63    28    61   1
    64    29    62   1
    65    30    63   1
    66    30    64   1
    67    31    65   1
    68    32    66   1
    69    35    67   1
    70    36    68   1
    71    36    69   1
    72    36    70   1
@<TRIPOS>SUBSTRUCTURE
     1  MOL      1

