@<TRIPOS>MOLECULE
1u33_ligand_046
    70    72
SMALL
GAST_HUCK
****
This file was generated by PARSER (from files_GN.cpp)

@<TRIPOS>ATOM
      1 CA1        10.1207   16.6390   42.5895 C.2         1 MOL       0.1322
      2 NA1         9.5323   16.8015   43.7916 N.2         1 MOL      -0.2068
      3 OA7         8.3939   16.2586   44.1209 O.3         1 MOL      -0.3046
      4 CA2        11.4336   17.2743   42.3421 C.3         1 MOL       0.1504
      5 OA2        11.5032   18.5794   42.9216 O.3         1 MOL      -0.3713
      6 CA3        11.7951   17.3484   40.8289 C.3         1 MOL       0.1237
      7 OA3        13.1730   17.7175   40.7356 O.3         1 MOL      -0.3840
      8 CA4        11.5161   15.9920   40.1122 C.3         1 MOL       0.1169
      9 OA4        11.7332   16.0053   38.6817 O.3         1 MOL      -0.3402
     10 CA5        10.0141   15.6069   40.3338 C.3         1 MOL       0.0902
     11 NA5         9.5252   15.8587   41.6593 N.pl3       1 MOL      -0.2990
     12 CA6         9.7010   14.1270   39.9665 C.3         1 MOL       0.0694
     13 OA6         9.3714   13.9986   38.5832 O.3         1 MOL      -0.3927
     14 CB1        13.0661   16.1097   38.1406 C.3         1 MOL       0.1884
     15 CB2        12.9938   15.9320   36.6024 C.3         1 MOL       0.1341
     16 CB3        14.4189   16.0197   35.9804 C.3         1 MOL       0.1144
     17 CB4        15.4372   15.0553   36.6714 C.3         1 MOL       0.1184
     18 CB5        15.3319   15.1314   38.2320 C.3         1 MOL       0.1134
     19 CB6        16.1366   16.2913   38.8710 C.3         1 MOL       0.0730
     20 OB2        12.3691   14.6905   36.2698 O.3         1 MOL      -0.3841
     21 OB3        14.9002   17.3673   36.0619 O.3         1 MOL      -0.3864
     22 OB4        15.2365   13.6727   36.2980 O.3         1 MOL      -0.3401
     23 OB5        13.9586   15.1117   38.6927 O.3         1 MOL      -0.3405
     24 OB6        16.0613   16.2335   40.2920 O.3         1 MOL      -0.3924
     25 CD1        15.5153   13.2241   34.9477 C.3         1 MOL       0.1884
     26 CD2        15.3312   11.6856   34.8636 C.3         1 MOL       0.1341
     27 CD3        16.4802   10.9514   35.6176 C.3         1 MOL       0.1143
     28 CD4        17.8769   11.4282   35.1168 C.3         1 MOL       0.1150
     29 CD5        17.9459   12.9874   35.1517 C.3         1 MOL       0.1133
     30 CD6        19.2390   13.5626   34.5084 C.3         1 MOL       0.0730
     31 OD2        14.0451   11.3408   35.3846 O.3         1 MOL      -0.3841
     32 OD3        16.3417    9.5432   35.4244 O.3         1 MOL      -0.3864
     33 OD4        18.9615   10.9364   35.9347 O.3         1 MOL      -0.3745
     34 OD5        16.8258   13.5743   34.4520 O.3         1 MOL      -0.3405
     35 OD6        20.1428   14.0290   35.5061 O.3         1 MOL      -0.3924
     36 CD7        19.3090    9.5426   35.8290 C.3         1 MOL       0.0370
     37 H1          8.0852   16.7690   44.8981 H           1 MOL       0.2523
     38 H2         12.1816   16.6625   42.8507 H           1 MOL       0.0843
     39 H3         10.8708   19.1481   42.4309 H           1 MOL       0.2137
     40 H4         11.1950   18.1323   40.3503 H           1 MOL       0.0674
     41 H5         13.1898   18.6940   40.9097 H           1 MOL       0.2103
     42 H6         12.1454   15.2263   40.5714 H           1 MOL       0.0650
     43 H7          9.3977   16.2357   39.6838 H           1 MOL       0.0603
     44 H8          8.6516   15.4987   41.8832 H           1 MOL       0.1812
     45 H9          8.8422   13.7581   40.5432 H           1 MOL       0.0581
     46 H10        10.5579   13.4823   40.1872 H           1 MOL       0.0581
     47 H11         8.9785   13.1016   38.5081 H           1 MOL       0.2095
     48 H12        13.4336   17.1180   38.3418 H           1 MOL       0.0938
     49 H13        12.3727   16.7291   36.1820 H           1 MOL       0.0671
     50 H14        14.3470   15.7949   34.9109 H           1 MOL       0.0648
     51 H15        16.4457   15.3494   36.3738 H           1 MOL       0.0651
     52 H16        15.7830   14.2233   38.6351 H           1 MOL       0.0647
     53 H17        15.7552   17.2592   38.5472 H           1 MOL       0.0584
     54 H18        17.1851   16.2230   38.5793 H           1 MOL       0.0584
     55 H19        12.8987   13.9959   36.7149 H           1 MOL       0.2101
     56 H20        14.3723   17.8738   35.4031 H           1 MOL       0.2100
     57 H21        16.6678   16.9411   40.6047 H           1 MOL       0.2095
     58 H22        14.7868   13.6696   34.2696 H           1 MOL       0.0938
     59 H23        15.3559   11.3871   33.8087 H           1 MOL       0.0671
     60 H24        16.3942   11.1589   36.6888 H           1 MOL       0.0648
     61 H25        17.9992   11.1129   34.0747 H           1 MOL       0.0649
     62 H26        17.9139   13.3189   36.1955 H           1 MOL       0.0647
     63 H27        18.9992   14.4154   33.8661 H           1 MOL       0.0584
     64 H28        19.7431   12.8117   33.8910 H           1 MOL       0.0584
     65 H29        13.9216   10.3925   35.1673 H           1 MOL       0.2101
     66 H30        15.6658    9.2600   36.0756 H           1 MOL       0.2100
     67 H31        20.8903   14.4185   35.0048 H           1 MOL       0.2095
     68 H32        20.2579    9.3827   36.3469 H           1 MOL       0.0524
     69 H33        19.4436    9.2348   34.7875 H           1 MOL       0.0524
     70 H34        18.5478    8.9156   36.2994 H           1 MOL       0.0524
@<TRIPOS>BOND
     1     1     2   2
     2     1     4   1
     3     1    11   1
     4     2     3   1
     5     4     5   1
     6     4     6   1
     7     6     7   1
     8     6     8   1
     9     8     9   1
    10     8    10   1
    11     9    14   1
    12    10    11   1
    13    10    12   1
    14    12    13   1
    15    14    15   1
    16    14    23   1
    17    15    16   1
    18    15    20   1
    19    16    17   1
    20    16    21   1
    21    17    18   1
    22    17    22   1
    23    18    19   1
    24    18    23   1
    25    19    24   1
    26    22    25   1
    27    25    26   1
    28    25    34   1
    29    26    27   1
    30    26    31   1
    31    27    28   1
    32    27    32   1
    33    28    29   1
    34    28    33   1
    35    29    30   1
    36    29    34   1
    37    30    35   1
    38    33    36   1
    39     3    37   1
    40     4    38   1
    41     5    39   1
    42     6    40   1
    43     7    41   1
    44     8    42   1
    45    10    43   1
    46    11    44   1
    47    12    45   1
    48    12    46   1
    49    13    47   1
    50    14    48   1
    51    15    49   1
    52    16    50   1
    53    17    51   1
    54    18    52   1
    55    19    53   1
    56    19    54   1
    57    20    55   1
    58    21    56   1
    59    24    57   1
    60    25    58   1
    61    26    59   1
    62    27    60   1
    63    28    61   1
    64    29    62   1
    65    30    63   1
    66    30    64   1
    67    31    65   1
    68    32    66   1
    69    35    67   1
    70    36    68   1
    71    36    69   1
    72    36    70   1
@<TRIPOS>SUBSTRUCTURE
     1  MOL      1

