@<TRIPOS>MOLECULE
1u33_ligand_048
    70    72
SMALL
GAST_HUCK
****
This file was generated by PARSER (from files_GN.cpp)

@<TRIPOS>ATOM
      1 CA1         6.0556   14.5229   44.8526 C.2         1 MOL       0.1322
      2 NA1         5.2525   14.3236   45.9200 N.2         1 MOL      -0.2068
      3 OA7         5.6621   14.2790   47.1603 O.3         1 MOL      -0.3046
      4 CA2         5.4497   14.5553   43.4958 C.3         1 MOL       0.1504
      5 OA2         4.8555   13.2916   43.1856 O.3         1 MOL      -0.3713
      6 CA3         6.4492   14.9245   42.3519 C.3         1 MOL       0.1237
      7 OA3         5.7601   15.6055   41.3075 O.3         1 MOL      -0.3840
      8 CA4         7.6831   15.7605   42.8256 C.3         1 MOL       0.1169
      9 OA4         8.5215   15.9301   41.6613 O.3         1 MOL      -0.3402
     10 CA5         8.3397   14.9829   44.0197 C.3         1 MOL       0.0902
     11 NA5         7.3690   14.7949   45.0561 N.pl3       1 MOL      -0.2990
     12 CA6         9.6193   15.6157   44.6356 C.3         1 MOL       0.0694
     13 OA6         9.6116   17.0374   44.6284 O.3         1 MOL      -0.3927
     14 CB1         9.8222   16.5245   41.7587 C.3         1 MOL       0.1884
     15 CB2        10.0874   17.4570   40.5472 C.3         1 MOL       0.1341
     16 CB3        11.6043   17.8256   40.4862 C.3         1 MOL       0.1144
     17 CB4        12.5102   16.5503   40.5021 C.3         1 MOL       0.1184
     18 CB5        12.1627   15.6516   41.7367 C.3         1 MOL       0.1134
     19 CB6        12.7595   16.1380   43.0919 C.3         1 MOL       0.0730
     20 OB2         9.6636   16.8257   39.3352 O.3         1 MOL      -0.3841
     21 OB3        11.9569   18.6717   41.5825 O.3         1 MOL      -0.3864
     22 OB4        12.3308   15.8929   39.2291 O.3         1 MOL      -0.3401
     23 OB5        10.7384   15.4083   41.8087 O.3         1 MOL      -0.3405
     24 OB6        12.7881   15.0672   44.0335 O.3         1 MOL      -0.3924
     25 CD1        13.1208   14.7742   38.7697 C.3         1 MOL       0.1884
     26 CD2        14.6714   14.9022   38.8243 C.3         1 MOL       0.1341
     27 CD3        15.1491   16.0369   37.8793 C.3         1 MOL       0.1143
     28 CD4        14.6298   15.8047   36.4332 C.3         1 MOL       0.1150
     29 CD5        13.0888   15.5669   36.4506 C.3         1 MOL       0.1133
     30 CD6        12.5406   15.1554   35.0611 C.3         1 MOL       0.0730
     31 OD2        15.1601   15.0965   40.1453 O.3         1 MOL      -0.3841
     32 OD3        16.5748   16.0987   37.8696 O.3         1 MOL      -0.3864
     33 OD4        14.9310   16.9751   35.6413 O.3         1 MOL      -0.3745
     34 OD5        12.7398   14.5276   37.3967 O.3         1 MOL      -0.3405
     35 OD6        11.3273   14.4205   35.1918 O.3         1 MOL      -0.3924
     36 CD7        15.2695   16.7530   34.2620 C.3         1 MOL       0.0370
     37 H1          6.2439   15.0575   47.2864 H           1 MOL       0.2523
     38 H2          4.6528   15.3023   43.5177 H           1 MOL       0.0843
     39 H3          4.3781   13.0269   43.9936 H           1 MOL       0.2137
     40 H4          6.8349   13.9962   41.9071 H           1 MOL       0.0674
     41 H5          6.3902   15.6342   40.5531 H           1 MOL       0.2103
     42 H6          7.3289   16.7412   43.1578 H           1 MOL       0.0650
     43 H7          8.6161   13.9827   43.6724 H           1 MOL       0.0603
     44 H8          7.6696   14.8639   45.9757 H           1 MOL       0.1812
     45 H9         10.4996   15.2898   44.0774 H           1 MOL       0.0581
     46 H10         9.7524   15.2815   45.6634 H           1 MOL       0.0581
     47 H11         8.7728   17.2907   45.1307 H           1 MOL       0.2095
     48 H12         9.9082   17.1495   42.6896 H           1 MOL       0.0938
     49 H13         9.4950   18.3654   40.6654 H           1 MOL       0.0671
     50 H14        11.8030   18.3934   39.5649 H           1 MOL       0.0648
     51 H15        13.5477   16.8884   40.5698 H           1 MOL       0.0651
     52 H16        12.6178   14.6835   41.5694 H           1 MOL       0.0647
     53 H17        12.1656   16.9560   43.5105 H           1 MOL       0.0584
     54 H18        13.7809   16.4894   42.9413 H           1 MOL       0.0584
     55 H19         9.0294   17.4520   38.9283 H           1 MOL       0.2101
     56 H20        11.2583   19.3610   41.6236 H           1 MOL       0.2100
     57 H21        12.7681   15.4782   44.9281 H           1 MOL       0.2095
     58 H22        12.8280   13.8815   39.3260 H           1 MOL       0.0938
     59 H23        15.1045   13.9598   38.4761 H           1 MOL       0.0671
     60 H24        14.7756   16.9976   38.2488 H           1 MOL       0.0648
     61 H25        15.1115   14.8962   36.0471 H           1 MOL       0.0649
     62 H26        12.5882   16.4984   36.7351 H           1 MOL       0.0647
     63 H27        13.2686   14.5365   34.5301 H           1 MOL       0.0584
     64 H28        12.3293   16.0429   34.4597 H           1 MOL       0.0584
     65 H29        14.9583   14.2659   40.6279 H           1 MOL       0.2101
     66 H30        16.8189   16.6595   38.6374 H           1 MOL       0.2100
     67 H31        11.5814   13.5660   35.6006 H           1 MOL       0.2095
     68 H32        15.4772   17.7174   33.7983 H           1 MOL       0.0524
     69 H33        14.4415   16.2811   33.7303 H           1 MOL       0.0524
     70 H34        16.1599   16.1250   34.1846 H           1 MOL       0.0524
@<TRIPOS>BOND
     1     1     2   2
     2     1     4   1
     3     1    11   1
     4     2     3   1
     5     4     5   1
     6     4     6   1
     7     6     7   1
     8     6     8   1
     9     8     9   1
    10     8    10   1
    11     9    14   1
    12    10    11   1
    13    10    12   1
    14    12    13   1
    15    14    15   1
    16    14    23   1
    17    15    16   1
    18    15    20   1
    19    16    17   1
    20    16    21   1
    21    17    18   1
    22    17    22   1
    23    18    19   1
    24    18    23   1
    25    19    24   1
    26    22    25   1
    27    25    26   1
    28    25    34   1
    29    26    27   1
    30    26    31   1
    31    27    28   1
    32    27    32   1
    33    28    29   1
    34    28    33   1
    35    29    30   1
    36    29    34   1
    37    30    35   1
    38    33    36   1
    39     3    37   1
    40     4    38   1
    41     5    39   1
    42     6    40   1
    43     7    41   1
    44     8    42   1
    45    10    43   1
    46    11    44   1
    47    12    45   1
    48    12    46   1
    49    13    47   1
    50    14    48   1
    51    15    49   1
    52    16    50   1
    53    17    51   1
    54    18    52   1
    55    19    53   1
    56    19    54   1
    57    20    55   1
    58    21    56   1
    59    24    57   1
    60    25    58   1
    61    26    59   1
    62    27    60   1
    63    28    61   1
    64    29    62   1
    65    30    63   1
    66    30    64   1
    67    31    65   1
    68    32    66   1
    69    35    67   1
    70    36    68   1
    71    36    69   1
    72    36    70   1
@<TRIPOS>SUBSTRUCTURE
     1  MOL      1

