@<TRIPOS>MOLECULE
1u33_ligand_037
    70    72
SMALL
GAST_HUCK
****
This file was generated by PARSER (from files_GN.cpp)

@<TRIPOS>ATOM
      1 CA1         3.1093   13.8000   40.8027 C.2         1 MOL       0.1322
      2 NA1         1.9356   13.1455   40.8916 N.2         1 MOL      -0.2068
      3 OA7         0.8615   13.4293   40.2089 O.3         1 MOL      -0.3046
      4 CA2         4.2510   13.2950   41.6042 C.3         1 MOL       0.1504
      5 OA2         3.8073   12.9722   42.9201 O.3         1 MOL      -0.3713
      6 CA3         5.4421   14.2915   41.6741 C.3         1 MOL       0.1237
      7 OA3         6.6196   13.6282   42.1262 O.3         1 MOL      -0.3840
      8 CA4         5.7197   14.8955   40.2762 C.3         1 MOL       0.1169
      9 OA4         6.8090   15.8474   40.3702 O.3         1 MOL      -0.3402
     10 CA5         4.4324   15.6160   39.7577 C.3         1 MOL       0.0902
     11 NA5         3.2338   14.8542   39.9582 N.pl3       1 MOL      -0.2990
     12 CA6         4.5312   16.0361   38.2688 C.3         1 MOL       0.0694
     13 OA6         4.8751   14.9537   37.4041 O.3         1 MOL      -0.3927
     14 CB1         8.0251   15.5669   39.6405 C.3         1 MOL       0.1884
     15 CB2         8.8848   14.4677   40.3251 C.3         1 MOL       0.1341
     16 CB3        10.2694   14.3449   39.6319 C.3         1 MOL       0.1144
     17 CB4        10.9635   15.7300   39.4440 C.3         1 MOL       0.1184
     18 CB5         9.9859   16.7973   38.8551 C.3         1 MOL       0.1134
     19 CB6         9.7840   16.7474   37.3138 C.3         1 MOL       0.0730
     20 OB2         9.0780   14.7646   41.7095 O.3         1 MOL      -0.3841
     21 OB3        10.1111   13.6857   38.3751 O.3         1 MOL      -0.3864
     22 OB4        11.4019   16.1789   40.7478 O.3         1 MOL      -0.3401
     23 OB5         8.7556   16.8048   39.6143 O.3         1 MOL      -0.3405
     24 OB6        11.0056   16.9569   36.6038 O.3         1 MOL      -0.3924
     25 CD1        12.6039   16.9328   41.0200 C.3         1 MOL       0.1884
     26 CD2        12.9215   18.1820   40.1522 C.3         1 MOL       0.1341
     27 CD3        13.6978   17.8105   38.8638 C.3         1 MOL       0.1143
     28 CD4        14.9759   17.0010   39.2338 C.3         1 MOL       0.1150
     29 CD5        14.5828   15.7455   40.0797 C.3         1 MOL       0.1133
     30 CD6        15.8341   15.0189   40.6354 C.3         1 MOL       0.0730
     31 OD2        11.7454   18.9111   39.8239 O.3         1 MOL      -0.3841
     32 OD3        14.0148   18.9838   38.1253 O.3         1 MOL      -0.3864
     33 OD4        15.8850   16.7116   38.1435 O.3         1 MOL      -0.3745
     34 OD5        13.7671   16.1018   41.2235 O.3         1 MOL      -0.3405
     35 OD6        15.4516   14.1640   41.7181 O.3         1 MOL      -0.3924
     36 CD7        15.3672   16.4930   36.8154 C.3         1 MOL       0.0370
     37 H1          0.2473   12.6903   40.4038 H           1 MOL       0.2523
     38 H2          4.5938   12.3741   41.1321 H           1 MOL       0.0843
     39 H3          4.5897   12.5774   43.3626 H           1 MOL       0.2137
     40 H4          5.2062   15.0884   42.3831 H           1 MOL       0.0674
     41 H5          6.4121   13.2496   43.0014 H           1 MOL       0.2103
     42 H6          5.9518   14.0578   39.6091 H           1 MOL       0.0650
     43 H7          4.3082   16.5361   40.3392 H           1 MOL       0.0603
     44 H8          2.4391   15.1471   39.4853 H           1 MOL       0.1812
     45 H9          5.2632   16.8378   38.1453 H           1 MOL       0.0581
     46 H10         3.5621   16.4201   37.9429 H           1 MOL       0.0581
     47 H11         5.8505   14.8748   37.4496 H           1 MOL       0.2095
     48 H12         7.7835   15.2751   38.6147 H           1 MOL       0.0938
     49 H13         8.3641   13.5128   40.2573 H           1 MOL       0.0671
     50 H14        10.9104   13.7013   40.2432 H           1 MOL       0.0648
     51 H15        11.7992   15.5750   38.7704 H           1 MOL       0.0651
     52 H16        10.4194   17.7890   39.0393 H           1 MOL       0.0647
     53 H17         9.0762   17.5283   37.0146 H           1 MOL       0.0584
     54 H18         9.3747   15.7855   37.0029 H           1 MOL       0.0584
     55 H19         8.2180   14.5938   42.1426 H           1 MOL       0.2101
     56 H20        11.0040   13.6859   37.9644 H           1 MOL       0.2100
     57 H21        11.1713   17.9260   36.6319 H           1 MOL       0.2095
     58 H22        12.3900   17.3223   42.0143 H           1 MOL       0.0938
     59 H23        13.5574   18.8495   40.7370 H           1 MOL       0.0671
     60 H24        13.0716   17.2132   38.2068 H           1 MOL       0.0648
     61 H25        15.5685   17.6401   39.8902 H           1 MOL       0.0649
     62 H26        14.0469   15.0184   39.4702 H           1 MOL       0.0647
     63 H27        16.5677   15.7475   41.0045 H           1 MOL       0.0584
     64 H28        16.3077   14.4046   39.8587 H           1 MOL       0.0584
     65 H29        11.6203   19.5733   40.5425 H           1 MOL       0.2101
     66 H30        13.1954   19.1893   37.6196 H           1 MOL       0.2100
     67 H31        16.2729   14.0441   42.2397 H           1 MOL       0.2095
     68 H32        16.1995   16.1852   36.1708 H           1 MOL       0.0524
     69 H33        14.9485   17.4198   36.4108 H           1 MOL       0.0524
     70 H34        14.6091   15.7042   36.7982 H           1 MOL       0.0524
@<TRIPOS>BOND
     1     1     2   2
     2     1     4   1
     3     1    11   1
     4     2     3   1
     5     4     5   1
     6     4     6   1
     7     6     7   1
     8     6     8   1
     9     8     9   1
    10     8    10   1
    11     9    14   1
    12    10    11   1
    13    10    12   1
    14    12    13   1
    15    14    15   1
    16    14    23   1
    17    15    16   1
    18    15    20   1
    19    16    17   1
    20    16    21   1
    21    17    18   1
    22    17    22   1
    23    18    19   1
    24    18    23   1
    25    19    24   1
    26    22    25   1
    27    25    26   1
    28    25    34   1
    29    26    27   1
    30    26    31   1
    31    27    28   1
    32    27    32   1
    33    28    29   1
    34    28    33   1
    35    29    30   1
    36    29    34   1
    37    30    35   1
    38    33    36   1
    39     3    37   1
    40     4    38   1
    41     5    39   1
    42     6    40   1
    43     7    41   1
    44     8    42   1
    45    10    43   1
    46    11    44   1
    47    12    45   1
    48    12    46   1
    49    13    47   1
    50    14    48   1
    51    15    49   1
    52    16    50   1
    53    17    51   1
    54    18    52   1
    55    19    53   1
    56    19    54   1
    57    20    55   1
    58    21    56   1
    59    24    57   1
    60    25    58   1
    61    26    59   1
    62    27    60   1
    63    28    61   1
    64    29    62   1
    65    30    63   1
    66    30    64   1
    67    31    65   1
    68    32    66   1
    69    35    67   1
    70    36    68   1
    71    36    69   1
    72    36    70   1
@<TRIPOS>SUBSTRUCTURE
     1  MOL      1

