@<TRIPOS>MOLECULE
1u33_ligand_028
    70    72
SMALL
GAST_HUCK
****
This file was generated by PARSER (from files_GN.cpp)

@<TRIPOS>ATOM
      1 CA1         5.1056   13.7687   41.0470 C.2         1 MOL       0.1322
      2 NA1         4.0736   12.9797   40.6902 N.2         1 MOL      -0.2068
      3 OA7         2.8864   13.0261   41.2244 O.3         1 MOL      -0.3046
      4 CA2         5.0040   14.8168   42.0935 C.3         1 MOL       0.1504
      5 OA2         4.5901   16.0285   41.4463 O.3         1 MOL      -0.3713
      6 CA3         6.3466   15.0153   42.8858 C.3         1 MOL       0.1237
      7 OA3         6.2279   14.3865   44.1618 O.3         1 MOL      -0.3840
      8 CA4         7.6644   14.5328   42.1708 C.3         1 MOL       0.1169
      9 OA4         8.7721   15.4394   42.3910 O.3         1 MOL      -0.3402
     10 CA5         7.4204   14.4205   40.6306 C.3         1 MOL       0.0902
     11 NA5         6.2709   13.6000   40.3841 N.pl3       1 MOL      -0.2990
     12 CA6         8.6354   13.8795   39.8281 C.3         1 MOL       0.0694
     13 OA6         8.2275   12.8774   38.8973 O.3         1 MOL      -0.3927
     14 CB1         9.3690   15.5421   43.7111 C.3         1 MOL       0.1884
     15 CB2         9.6702   17.0284   44.0202 C.3         1 MOL       0.1341
     16 CB3        10.7852   17.5660   43.0848 C.3         1 MOL       0.1144
     17 CB4        12.0439   16.6527   42.9930 C.3         1 MOL       0.1184
     18 CB5        11.6736   15.1228   42.9576 C.3         1 MOL       0.1134
     19 CB6        12.8427   14.1847   43.3586 C.3         1 MOL       0.0730
     20 OB2         8.4649   17.7740   43.8477 O.3         1 MOL      -0.3841
     21 OB3        11.2176   18.8492   43.5427 O.3         1 MOL      -0.3864
     22 OB4        12.7383   17.1954   41.8458 O.3         1 MOL      -0.3401
     23 OB5        10.5838   14.7816   43.8451 O.3         1 MOL      -0.3405
     24 OB6        13.7855   14.8067   44.2330 O.3         1 MOL      -0.3924
     25 CD1        13.7548   16.5310   41.0717 C.3         1 MOL       0.1884
     26 CD2        14.3523   17.5342   40.0495 C.3         1 MOL       0.1341
     27 CD3        13.2442   18.0124   39.0740 C.3         1 MOL       0.1143
     28 CD4        12.5645   16.7956   38.3735 C.3         1 MOL       0.1150
     29 CD5        12.1654   15.6934   39.4125 C.3         1 MOL       0.1133
     30 CD6        11.7752   14.3562   38.7359 C.3         1 MOL       0.0730
     31 OD2        14.9454   18.6384   40.7266 O.3         1 MOL      -0.3841
     32 OD3        13.7923   18.8908   38.0973 O.3         1 MOL      -0.3864
     33 OD4        11.4913   17.1687   37.4729 O.3         1 MOL      -0.3745
     34 OD5        13.2317   15.3942   40.3505 O.3         1 MOL      -0.3405
     35 OD6        11.3673   13.3907   39.7062 O.3         1 MOL      -0.3924
     36 CD7        10.3339   17.8821   37.9551 C.3         1 MOL       0.0370
     37 H1          2.2903   12.6450   40.5430 H           1 MOL       0.2523
     38 H2          4.2027   14.5701   42.7963 H           1 MOL       0.0843
     39 H3          5.3957   16.4017   41.0233 H           1 MOL       0.2137
     40 H4          6.4525   16.0824   43.0946 H           1 MOL       0.0674
     41 H5          6.1367   13.4300   43.9732 H           1 MOL       0.2103
     42 H6          7.9396   13.5333   42.5319 H           1 MOL       0.0650
     43 H7          7.2036   15.4226   40.2449 H           1 MOL       0.0603
     44 H8          6.3315   12.8969   39.7184 H           1 MOL       0.1812
     45 H9          9.3743   13.4429   40.5038 H           1 MOL       0.0581
     46 H10         9.1161   14.6876   39.2702 H           1 MOL       0.0581
     47 H11         7.8933   13.3696   38.1118 H           1 MOL       0.2095
     48 H12         8.6857   15.1845   44.4826 H           1 MOL       0.0938
     49 H13         9.9909   17.1229   45.0629 H           1 MOL       0.0671
     50 H14        10.3521   17.6930   42.0852 H           1 MOL       0.0648
     51 H15        12.6557   16.8449   43.8780 H           1 MOL       0.0651
     52 H16        11.3705   14.8476   41.9436 H           1 MOL       0.0647
     53 H17        13.3851   13.8680   42.4745 H           1 MOL       0.0584
     54 H18        12.4615   13.2834   43.8499 H           1 MOL       0.0584
     55 H19         8.7282   18.7168   43.7798 H           1 MOL       0.2101
     56 H20        10.5867   19.4990   43.1799 H           1 MOL       0.2100
     57 H21        13.3300   14.9535   45.0923 H           1 MOL       0.2095
     58 H22        14.5538   16.1870   41.7333 H           1 MOL       0.0938
     59 H23        15.1437   17.0317   39.4837 H           1 MOL       0.0671
     60 H24        12.5067   18.5745   39.6456 H           1 MOL       0.0648
     61 H25        13.3279   16.3579   37.7242 H           1 MOL       0.0649
     62 H26        11.3041   16.0517   39.9742 H           1 MOL       0.0647
     63 H27        12.6239   13.9452   38.1698 H           1 MOL       0.0584
     64 H28        10.9421   14.5131   38.0490 H           1 MOL       0.0584
     65 H29        15.8733   18.3614   40.9112 H           1 MOL       0.2101
     66 H30        13.0255   19.1705   37.5522 H           1 MOL       0.2100
     67 H31        12.1496   13.2810   40.3037 H           1 MOL       0.2095
     68 H32         9.6725   18.0648   37.1084 H           1 MOL       0.0524
     69 H33        10.6094   18.8451   38.3794 H           1 MOL       0.0524
     70 H34         9.7803   17.3052   38.6938 H           1 MOL       0.0524
@<TRIPOS>BOND
     1     1     2   2
     2     1     4   1
     3     1    11   1
     4     2     3   1
     5     4     5   1
     6     4     6   1
     7     6     7   1
     8     6     8   1
     9     8     9   1
    10     8    10   1
    11     9    14   1
    12    10    11   1
    13    10    12   1
    14    12    13   1
    15    14    15   1
    16    14    23   1
    17    15    16   1
    18    15    20   1
    19    16    17   1
    20    16    21   1
    21    17    18   1
    22    17    22   1
    23    18    19   1
    24    18    23   1
    25    19    24   1
    26    22    25   1
    27    25    26   1
    28    25    34   1
    29    26    27   1
    30    26    31   1
    31    27    28   1
    32    27    32   1
    33    28    29   1
    34    28    33   1
    35    29    30   1
    36    29    34   1
    37    30    35   1
    38    33    36   1
    39     3    37   1
    40     4    38   1
    41     5    39   1
    42     6    40   1
    43     7    41   1
    44     8    42   1
    45    10    43   1
    46    11    44   1
    47    12    45   1
    48    12    46   1
    49    13    47   1
    50    14    48   1
    51    15    49   1
    52    16    50   1
    53    17    51   1
    54    18    52   1
    55    19    53   1
    56    19    54   1
    57    20    55   1
    58    21    56   1
    59    24    57   1
    60    25    58   1
    61    26    59   1
    62    27    60   1
    63    28    61   1
    64    29    62   1
    65    30    63   1
    66    30    64   1
    67    31    65   1
    68    32    66   1
    69    35    67   1
    70    36    68   1
    71    36    69   1
    72    36    70   1
@<TRIPOS>SUBSTRUCTURE
     1  MOL      1

