@<TRIPOS>MOLECULE
1u33_ligand_074
    70    72
SMALL
GAST_HUCK
****
This file was generated by PARSER (from files_GN.cpp)

@<TRIPOS>ATOM
      1 CA1         0.0469   13.5359   38.6890 C.2         1 MOL       0.1322
      2 NA1        -1.1638   13.4319   38.0911 N.2         1 MOL      -0.2068
      3 OA7        -2.1680   14.2237   38.3354 O.3         1 MOL      -0.3046
      4 CA2         1.1023   12.5698   38.2896 C.3         1 MOL       0.1504
      5 OA2         0.5943   11.2352   38.3776 O.3         1 MOL      -0.3713
      6 CA3         2.4023   12.6755   39.1410 C.3         1 MOL       0.1237
      7 OA3         3.4923   12.0451   38.4625 O.3         1 MOL      -0.3840
      8 CA4         2.7354   14.1576   39.4960 C.3         1 MOL       0.1169
      9 OA4         3.9167   14.2242   40.3306 O.3         1 MOL      -0.3402
     10 CA5         1.5191   14.7604   40.2624 C.3         1 MOL       0.0902
     11 NA5         0.2766   14.5257   39.5788 N.pl3       1 MOL      -0.2990
     12 CA6         1.6935   16.2773   40.5219 C.3         1 MOL       0.0694
     13 OA6         0.4881   16.8660   40.9952 O.3         1 MOL      -0.3927
     14 CB1         5.1953   14.4392   39.6981 C.3         1 MOL       0.1884
     15 CB2         6.2657   13.6066   40.4518 C.3         1 MOL       0.1341
     16 CB3         7.6795   13.9348   39.8911 C.3         1 MOL       0.1144
     17 CB4         7.9720   15.4669   39.9324 C.3         1 MOL       0.1184
     18 CB5         6.8065   16.2714   39.2561 C.3         1 MOL       0.1134
     19 CB6         6.8631   16.3168   37.6986 C.3         1 MOL       0.0730
     20 OB2         6.1911   13.8677   41.8530 O.3         1 MOL      -0.3841
     21 OB3         7.8177   13.4485   38.5540 O.3         1 MOL      -0.3864
     22 OB4         8.1322   16.0065   41.2683 O.3         1 MOL      -0.3401
     23 OB5         5.5058   15.8506   39.7490 O.3         1 MOL      -0.3405
     24 OB6         6.2335   17.4848   37.1693 O.3         1 MOL      -0.3924
     25 CD1         8.9446   15.3325   42.2614 C.3         1 MOL       0.1884
     26 CD2         8.9990   16.1804   43.5627 C.3         1 MOL       0.1341
     27 CD3         9.9540   17.3987   43.4078 C.3         1 MOL       0.1143
     28 CD4        11.3563   16.9613   42.8821 C.3         1 MOL       0.1150
     29 CD5        11.1889   16.0665   41.6119 C.3         1 MOL       0.1133
     30 CD6        12.5251   15.4256   41.1530 C.3         1 MOL       0.0730
     31 OD2         7.6693   16.5980   43.8889 O.3         1 MOL      -0.3841
     32 OD3        10.0602   18.0808   44.6665 O.3         1 MOL      -0.3864
     33 OD4        12.2096   18.0635   42.5003 O.3         1 MOL      -0.3745
     34 OD5        10.2689   14.9773   41.8310 O.3         1 MOL      -0.3405
     35 OD6        12.3829   14.8626   39.8518 O.3         1 MOL      -0.3924
     36 CD7        12.3257   19.1850   43.3944 C.3         1 MOL       0.0370
     37 H1         -2.8835   13.8990   37.7506 H           1 MOL       0.2523
     38 H2          1.3514   12.7629   37.2406 H           1 MOL       0.0843
     39 H3         -0.0051   11.2436   39.1551 H           1 MOL       0.2137
     40 H4          2.2587   12.1314   40.0802 H           1 MOL       0.0674
     41 H5          3.6427   12.5766   37.6515 H           1 MOL       0.2103
     42 H6          2.8740   14.7219   38.5650 H           1 MOL       0.0650
     43 H7          1.4379   14.2654   41.2338 H           1 MOL       0.0603
     44 H8         -0.4659   15.1055   39.7986 H           1 MOL       0.1812
     45 H9          1.9840   16.7867   39.6034 H           1 MOL       0.0581
     46 H10         2.4700   16.4368   41.2675 H           1 MOL       0.0581
     47 H11         0.1848   16.2943   41.7313 H           1 MOL       0.2095
     48 H12         5.1697   14.0995   38.6615 H           1 MOL       0.0938
     49 H13         6.0603   12.5406   40.3024 H           1 MOL       0.0671
     50 H14         8.4365   13.4010   40.4724 H           1 MOL       0.0648
     51 H15         8.9029   15.6563   39.3897 H           1 MOL       0.0651
     52 H16         6.9159   17.3119   39.5705 H           1 MOL       0.0647
     53 H17         6.3872   15.4378   37.2595 H           1 MOL       0.0584
     54 H18         7.8998   16.3436   37.3590 H           1 MOL       0.0584
     55 H19         6.4363   13.0218   42.2899 H           1 MOL       0.2101
     56 H20         7.9193   12.4746   38.6390 H           1 MOL       0.2100
     57 H21         5.4762   17.6921   37.7530 H           1 MOL       0.2095
     58 H22         8.4518   14.4004   42.5336 H           1 MOL       0.0938
     59 H23         9.3638   15.5468   44.3801 H           1 MOL       0.0671
     60 H24         9.5138   18.0974   42.6896 H           1 MOL       0.0648
     61 H25        11.8534   16.3713   43.6586 H           1 MOL       0.0649
     62 H26        10.8141   16.6882   40.7880 H           1 MOL       0.0647
     63 H27        12.8219   14.6349   41.8487 H           1 MOL       0.0584
     64 H28        13.3176   16.1784   41.1188 H           1 MOL       0.0584
     65 H29         7.7325   16.9991   44.7775 H           1 MOL       0.2101
     66 H30        10.6543   17.5420   45.2287 H           1 MOL       0.2100
     67 H31        13.2221   14.3791   39.6925 H           1 MOL       0.2095
     68 H32        13.2076   19.7621   43.1131 H           1 MOL       0.0524
     69 H33        12.4425   18.8688   44.4363 H           1 MOL       0.0524
     70 H34        11.4512   19.8255   43.3004 H           1 MOL       0.0524
@<TRIPOS>BOND
     1     1     2   2
     2     1     4   1
     3     1    11   1
     4     2     3   1
     5     4     5   1
     6     4     6   1
     7     6     7   1
     8     6     8   1
     9     8     9   1
    10     8    10   1
    11     9    14   1
    12    10    11   1
    13    10    12   1
    14    12    13   1
    15    14    15   1
    16    14    23   1
    17    15    16   1
    18    15    20   1
    19    16    17   1
    20    16    21   1
    21    17    18   1
    22    17    22   1
    23    18    19   1
    24    18    23   1
    25    19    24   1
    26    22    25   1
    27    25    26   1
    28    25    34   1
    29    26    27   1
    30    26    31   1
    31    27    28   1
    32    27    32   1
    33    28    29   1
    34    28    33   1
    35    29    30   1
    36    29    34   1
    37    30    35   1
    38    33    36   1
    39     3    37   1
    40     4    38   1
    41     5    39   1
    42     6    40   1
    43     7    41   1
    44     8    42   1
    45    10    43   1
    46    11    44   1
    47    12    45   1
    48    12    46   1
    49    13    47   1
    50    14    48   1
    51    15    49   1
    52    16    50   1
    53    17    51   1
    54    18    52   1
    55    19    53   1
    56    19    54   1
    57    20    55   1
    58    21    56   1
    59    24    57   1
    60    25    58   1
    61    26    59   1
    62    27    60   1
    63    28    61   1
    64    29    62   1
    65    30    63   1
    66    30    64   1
    67    31    65   1
    68    32    66   1
    69    35    67   1
    70    36    68   1
    71    36    69   1
    72    36    70   1
@<TRIPOS>SUBSTRUCTURE
     1  MOL      1

