@<TRIPOS>MOLECULE
1u33_ligand_069
    70    72
SMALL
GAST_HUCK
****
This file was generated by PARSER (from files_GN.cpp)

@<TRIPOS>ATOM
      1 CA1         7.4469   14.7150   39.1383 C.2         1 MOL       0.1322
      2 NA1         7.7726   14.3295   37.8887 N.2         1 MOL      -0.2068
      3 OA7         7.8465   13.0893   37.5092 O.3         1 MOL      -0.3046
      4 CA2         7.4171   16.1728   39.4396 C.3         1 MOL       0.1504
      5 OA2         8.7644   16.6584   39.4072 O.3         1 MOL      -0.3713
      6 CA3         6.7617   16.5369   40.8045 C.3         1 MOL       0.1237
      7 OA3         5.3530   16.6492   40.6579 O.3         1 MOL      -0.3840
      8 CA4         7.1084   15.4962   41.9079 C.3         1 MOL       0.1169
      9 OA4         8.5263   15.5981   42.1877 O.3         1 MOL      -0.3402
     10 CA5         6.7909   14.0330   41.4390 C.3         1 MOL       0.0902
     11 NA5         7.1627   13.7804   40.0743 N.pl3       1 MOL      -0.2990
     12 CA6         5.3059   13.6011   41.6115 C.3         1 MOL       0.0694
     13 OA6         4.8504   13.7929   42.9479 O.3         1 MOL      -0.3927
     14 CB1         8.9781   15.6484   43.5658 C.3         1 MOL       0.1884
     15 CB2         9.3399   17.1003   43.9764 C.3         1 MOL       0.1341
     16 CB3        10.5228   17.6204   43.1212 C.3         1 MOL       0.1144
     17 CB4        11.7409   16.6375   43.0277 C.3         1 MOL       0.1184
     18 CB5        11.2965   15.1429   42.9354 C.3         1 MOL       0.1134
     19 CB6        12.4142   14.1399   43.3769 C.3         1 MOL       0.0730
     20 OB2         8.1891   17.9249   43.8031 O.3         1 MOL      -0.3841
     21 OB3        11.0092   18.8508   43.6579 O.3         1 MOL      -0.3864
     22 OB4        12.4396   17.1819   41.8814 O.3         1 MOL      -0.3401
     23 OB5        10.1376   14.8180   43.7317 O.3         1 MOL      -0.3405
     24 OB6        12.1723   13.5897   44.6809 O.3         1 MOL      -0.3924
     25 CD1        13.5008   16.5297   41.1741 C.3         1 MOL       0.1884
     26 CD2        14.1702   17.5501   40.2149 C.3         1 MOL       0.1341
     27 CD3        13.2090   17.9372   39.0509 C.3         1 MOL       0.1143
     28 CD4        12.6483   16.6751   38.3312 C.3         1 MOL       0.1150
     29 CD5        12.0594   15.6930   39.3803 C.3         1 MOL       0.1133
     30 CD6        11.6245   14.3310   38.7863 C.3         1 MOL       0.0730
     31 OD2        14.5962   18.7145   40.9296 O.3         1 MOL      -0.3841
     32 OD3        13.9011   18.7811   38.1335 O.3         1 MOL      -0.3864
     33 OD4        11.6059   17.0779   37.4155 O.3         1 MOL      -0.3745
     34 OD5        13.0323   15.3971   40.4117 O.3         1 MOL      -0.3405
     35 OD6        10.4228   14.4031   38.0212 O.3         1 MOL      -0.3924
     36 CD7        11.9018   16.9873   36.0106 C.3         1 MOL       0.0370
     37 H1          8.2138   13.1214   36.6038 H           1 MOL       0.2523
     38 H2          6.8696   16.6883   38.6358 H           1 MOL       0.0843
     39 H3          8.6809   17.6034   39.1319 H           1 MOL       0.2137
     40 H4          7.1162   17.5100   41.1299 H           1 MOL       0.0674
     41 H5          5.2088   17.4066   40.0578 H           1 MOL       0.2103
     42 H6          6.5138   15.7401   42.7936 H           1 MOL       0.0650
     43 H7          7.3876   13.3464   42.0518 H           1 MOL       0.0603
     44 H8          7.1760   12.8593   39.7852 H           1 MOL       0.1812
     45 H9          5.1965   12.5388   41.3739 H           1 MOL       0.0581
     46 H10         4.6586   14.1631   40.9412 H           1 MOL       0.0581
     47 H11         5.3900   13.1768   43.4876 H           1 MOL       0.2095
     48 H12         8.2287   15.2669   44.2561 H           1 MOL       0.0938
     49 H13         9.6221   17.1159   45.0316 H           1 MOL       0.0671
     50 H14        10.1331   17.8120   42.1155 H           1 MOL       0.0648
     51 H15        12.3527   16.7731   43.9181 H           1 MOL       0.0651
     52 H16        11.0356   14.9168   41.8952 H           1 MOL       0.0647
     53 H17        13.3951   14.6044   43.3930 H           1 MOL       0.0584
     54 H18        12.4453   13.3051   42.6830 H           1 MOL       0.0584
     55 H19         8.5223   18.8422   43.6996 H           1 MOL       0.2101
     56 H20        10.6774   19.5567   43.0577 H           1 MOL       0.2100
     57 H21        12.3370   14.3142   45.3249 H           1 MOL       0.2095
     58 H22        14.2573   16.1904   41.8826 H           1 MOL       0.0938
     59 H23        15.0674   17.0828   39.7909 H           1 MOL       0.0671
     60 H24        12.3756   18.5136   39.4609 H           1 MOL       0.0648
     61 H25        13.4777   16.1630   37.8181 H           1 MOL       0.0649
     62 H26        11.1718   16.1448   39.8251 H           1 MOL       0.0647
     63 H27        11.4385   13.6214   39.6005 H           1 MOL       0.0584
     64 H28        12.4185   13.9156   38.1559 H           1 MOL       0.0584
     65 H29        13.7748   19.1169   41.2848 H           1 MOL       0.2101
     66 H30        14.3624   18.1687   37.5268 H           1 MOL       0.2100
     67 H31        10.6425   14.9416   37.2402 H           1 MOL       0.2095
     68 H32        11.0637   17.4080   35.4521 H           1 MOL       0.0524
     69 H33        12.0237   15.9432   35.7138 H           1 MOL       0.0524
     70 H34        12.8036   17.5446   35.7530 H           1 MOL       0.0524
@<TRIPOS>BOND
     1     1     2   2
     2     1     4   1
     3     1    11   1
     4     2     3   1
     5     4     5   1
     6     4     6   1
     7     6     7   1
     8     6     8   1
     9     8     9   1
    10     8    10   1
    11     9    14   1
    12    10    11   1
    13    10    12   1
    14    12    13   1
    15    14    15   1
    16    14    23   1
    17    15    16   1
    18    15    20   1
    19    16    17   1
    20    16    21   1
    21    17    18   1
    22    17    22   1
    23    18    19   1
    24    18    23   1
    25    19    24   1
    26    22    25   1
    27    25    26   1
    28    25    34   1
    29    26    27   1
    30    26    31   1
    31    27    28   1
    32    27    32   1
    33    28    29   1
    34    28    33   1
    35    29    30   1
    36    29    34   1
    37    30    35   1
    38    33    36   1
    39     3    37   1
    40     4    38   1
    41     5    39   1
    42     6    40   1
    43     7    41   1
    44     8    42   1
    45    10    43   1
    46    11    44   1
    47    12    45   1
    48    12    46   1
    49    13    47   1
    50    14    48   1
    51    15    49   1
    52    16    50   1
    53    17    51   1
    54    18    52   1
    55    19    53   1
    56    19    54   1
    57    20    55   1
    58    21    56   1
    59    24    57   1
    60    25    58   1
    61    26    59   1
    62    27    60   1
    63    28    61   1
    64    29    62   1
    65    30    63   1
    66    30    64   1
    67    31    65   1
    68    32    66   1
    69    35    67   1
    70    36    68   1
    71    36    69   1
    72    36    70   1
@<TRIPOS>SUBSTRUCTURE
     1  MOL      1

