@<TRIPOS>MOLECULE
1u33_ligand_021
    70    72
SMALL
GAST_HUCK
****
This file was generated by PARSER (from files_GN.cpp)

@<TRIPOS>ATOM
      1 CA1        14.0705   15.9526   41.5360 C.2         1 MOL       0.1322
      2 NA1        15.3297   16.1058   41.0742 N.2         1 MOL      -0.2068
      3 OA7        15.6443   16.7397   39.9777 O.3         1 MOL      -0.3046
      4 CA2        13.8584   15.2608   42.8257 C.3         1 MOL       0.1504
      5 OA2        14.6679   14.0922   42.9093 O.3         1 MOL      -0.3713
      6 CA3        12.3770   14.8324   42.9937 C.3         1 MOL       0.1237
      7 OA3        12.1692   14.2751   44.2928 O.3         1 MOL      -0.3840
      8 CA4        11.4094   16.0137   42.7301 C.3         1 MOL       0.1169
      9 OA4        10.0875   15.4569   42.8905 O.3         1 MOL      -0.3402
     10 CA5        11.6944   16.6377   41.3160 C.3         1 MOL       0.0902
     11 NA5        13.0488   16.5121   40.8501 N.pl3       1 MOL      -0.2990
     12 CA6        11.3617   18.1556   41.2458 C.3         1 MOL       0.0694
     13 OA6        12.4176   18.9714   41.7631 O.3         1 MOL      -0.3927
     14 CB1         8.9599   16.3382   43.0143 C.3         1 MOL       0.1884
     15 CB2         7.8568   15.6876   43.8905 C.3         1 MOL       0.1341
     16 CB3         7.0940   14.5701   43.1381 C.3         1 MOL       0.1144
     17 CB4         6.6177   15.0461   41.7401 C.3         1 MOL       0.1184
     18 CB5         7.8490   15.6052   40.9600 C.3         1 MOL       0.1134
     19 CB6         7.5190   16.1710   39.5531 C.3         1 MOL       0.0730
     20 OB2         8.4170   15.1288   45.0807 O.3         1 MOL      -0.3841
     21 OB3         5.9704   14.1865   43.9244 O.3         1 MOL      -0.3864
     22 OB4         5.9882   13.9199   41.0670 O.3         1 MOL      -0.3401
     23 OB5         8.4419   16.6852   41.7172 O.3         1 MOL      -0.3405
     24 OB6         6.4480   17.1135   39.6009 O.3         1 MOL      -0.3924
     25 CD1         4.8542   14.1804   40.2086 C.3         1 MOL       0.1884
     26 CD2         3.5269   14.3675   40.9819 C.3         1 MOL       0.1341
     27 CD3         2.3748   14.6127   39.9705 C.3         1 MOL       0.1143
     28 CD4         2.3087   13.5271   38.8482 C.3         1 MOL       0.1150
     29 CD5         3.7251   13.1160   38.3053 C.3         1 MOL       0.1133
     30 CD6         4.2527   13.9240   37.0838 C.3         1 MOL       0.0730
     31 OD2         3.2293   13.2285   41.7763 O.3         1 MOL      -0.3841
     32 OD3         2.5012   15.9112   39.3910 O.3         1 MOL      -0.3864
     33 OD4         1.6265   12.3771   39.4092 O.3         1 MOL      -0.3745
     34 OD5         4.7285   13.0388   39.3457 O.3         1 MOL      -0.3405
     35 OD6         4.0427   15.3338   37.1726 O.3         1 MOL      -0.3924
     36 CD7         0.6950   11.6904   38.5508 C.3         1 MOL       0.0370
     37 H1         16.4871   17.2043   40.1874 H           1 MOL       0.2523
     38 H2         14.1384   15.9352   43.6341 H           1 MOL       0.0843
     39 H3         15.5130   14.3760   43.3237 H           1 MOL       0.2137
     40 H4         12.1654   14.0372   42.2701 H           1 MOL       0.0674
     41 H5         12.4812   14.9403   44.9456 H           1 MOL       0.2103
     42 H6         11.5972   16.7619   43.5097 H           1 MOL       0.0650
     43 H7         11.0635   16.1209   40.5880 H           1 MOL       0.0603
     44 H8         13.2581   16.9239   39.9914 H           1 MOL       0.1812
     45 H9         10.4518   18.3967   41.8028 H           1 MOL       0.0581
     46 H10        11.1868   18.4487   40.2004 H           1 MOL       0.0581
     47 H11        12.0790   19.8905   41.6511 H           1 MOL       0.2095
     48 H12         9.2572   17.2611   43.5207 H           1 MOL       0.0938
     49 H13         7.1351   16.4606   44.1815 H           1 MOL       0.0671
     50 H14         7.7524   13.7067   43.0216 H           1 MOL       0.0648
     51 H15         5.9132   15.8726   41.8921 H           1 MOL       0.0651
     52 H16         8.5829   14.8043   40.8132 H           1 MOL       0.0647
     53 H17         7.2454   15.3542   38.8767 H           1 MOL       0.0584
     54 H18         8.4040   16.6684   39.1376 H           1 MOL       0.0584
     55 H19         8.3705   15.8475   45.7436 H           1 MOL       0.2101
     56 H20         5.8585   13.2287   43.7591 H           1 MOL       0.2100
     57 H21         6.7562   17.8161   40.2142 H           1 MOL       0.2095
     58 H22         5.0690   15.0625   39.6015 H           1 MOL       0.0938
     59 H23         3.6025   15.2231   41.6423 H           1 MOL       0.0671
     60 H24         1.4237   14.6172   40.5112 H           1 MOL       0.0648
     61 H25         1.7102   13.9412   38.0215 H           1 MOL       0.0649
     62 H26         3.6521   12.0929   37.9387 H           1 MOL       0.0647
     63 H27         3.7619   13.5725   36.1640 H           1 MOL       0.0584
     64 H28         5.3337   13.7552   36.9725 H           1 MOL       0.0584
     65 H29         4.0923   12.8682   42.0689 H           1 MOL       0.2101
     66 H30         2.3808   16.5383   40.1357 H           1 MOL       0.2100
     67 H31         4.4350   15.7011   36.3447 H           1 MOL       0.2095
     68 H32         0.2450   10.8722   39.1089 H           1 MOL       0.0524
     69 H33         1.1940   11.2750   37.6745 H           1 MOL       0.0524
     70 H34        -0.1079   12.3565   38.2282 H           1 MOL       0.0524
@<TRIPOS>BOND
     1     1     2   2
     2     1     4   1
     3     1    11   1
     4     2     3   1
     5     4     5   1
     6     4     6   1
     7     6     7   1
     8     6     8   1
     9     8     9   1
    10     8    10   1
    11     9    14   1
    12    10    11   1
    13    10    12   1
    14    12    13   1
    15    14    15   1
    16    14    23   1
    17    15    16   1
    18    15    20   1
    19    16    17   1
    20    16    21   1
    21    17    18   1
    22    17    22   1
    23    18    19   1
    24    18    23   1
    25    19    24   1
    26    22    25   1
    27    25    26   1
    28    25    34   1
    29    26    27   1
    30    26    31   1
    31    27    28   1
    32    27    32   1
    33    28    29   1
    34    28    33   1
    35    29    30   1
    36    29    34   1
    37    30    35   1
    38    33    36   1
    39     3    37   1
    40     4    38   1
    41     5    39   1
    42     6    40   1
    43     7    41   1
    44     8    42   1
    45    10    43   1
    46    11    44   1
    47    12    45   1
    48    12    46   1
    49    13    47   1
    50    14    48   1
    51    15    49   1
    52    16    50   1
    53    17    51   1
    54    18    52   1
    55    19    53   1
    56    19    54   1
    57    20    55   1
    58    21    56   1
    59    24    57   1
    60    25    58   1
    61    26    59   1
    62    27    60   1
    63    28    61   1
    64    29    62   1
    65    30    63   1
    66    30    64   1
    67    31    65   1
    68    32    66   1
    69    35    67   1
    70    36    68   1
    71    36    69   1
    72    36    70   1
@<TRIPOS>SUBSTRUCTURE
     1  MOL      1

