@<TRIPOS>MOLECULE
1u33_ligand_050
    70    72
SMALL
GAST_HUCK
****
This file was generated by PARSER (from files_GN.cpp)

@<TRIPOS>ATOM
      1 CA1         3.4052   13.2510   40.8190 C.2         1 MOL       0.1322
      2 NA1         2.1086   12.9123   40.9552 N.2         1 MOL      -0.2068
      3 OA7         1.3393   12.5722   39.9572 O.3         1 MOL      -0.3046
      4 CA2         4.1780   13.5850   42.0417 C.3         1 MOL       0.1504
      5 OA2         3.4514   14.4980   42.8645 O.3         1 MOL      -0.3713
      6 CA3         5.5727   14.1904   41.7255 C.3         1 MOL       0.1237
      7 OA3         6.3960   14.2064   42.8904 O.3         1 MOL      -0.3840
      8 CA4         6.2680   13.3997   40.5766 C.3         1 MOL       0.1169
      9 OA4         7.6307   13.7989   40.3023 O.3         1 MOL      -0.3402
     10 CA5         5.3689   13.3954   39.2888 C.3         1 MOL       0.0902
     11 NA5         3.9735   13.2249   39.5868 N.pl3       1 MOL      -0.2990
     12 CA6         5.7662   12.3071   38.2521 C.3         1 MOL       0.0694
     13 OA6         6.9322   11.5743   38.6200 O.3         1 MOL      -0.3927
     14 CB1         7.9441   15.0804   39.7126 C.3         1 MOL       0.1884
     15 CB2         8.9228   14.8953   38.5260 C.3         1 MOL       0.1341
     16 CB3        10.2852   14.3555   39.0380 C.3         1 MOL       0.1144
     17 CB4        10.8880   15.3016   40.1304 C.3         1 MOL       0.1184
     18 CB5         9.8035   15.5315   41.2407 C.3         1 MOL       0.1134
     19 CB6        10.1986   16.5904   42.3079 C.3         1 MOL       0.0730
     20 OB2         8.3580   14.0215   37.5525 O.3         1 MOL      -0.3841
     21 OB3        11.1276   14.1919   37.8931 O.3         1 MOL      -0.3864
     22 OB4        12.0661   14.7300   40.7711 O.3         1 MOL      -0.3401
     23 OB5         8.5430   15.9731   40.6765 O.3         1 MOL      -0.3405
     24 OB6        11.3128   16.1825   43.0992 O.3         1 MOL      -0.3924
     25 CD1        13.3886   14.8982   40.2052 C.3         1 MOL       0.1884
     26 CD2        14.2214   16.0338   40.8823 C.3         1 MOL       0.1341
     27 CD3        15.5262   16.3613   40.0890 C.3         1 MOL       0.1143
     28 CD4        15.2608   16.4880   38.5595 C.3         1 MOL       0.1150
     29 CD5        14.5208   15.2119   38.0274 C.3         1 MOL       0.1133
     30 CD6        15.3549   13.8981   37.9244 C.3         1 MOL       0.0730
     31 OD2        13.4496   17.2247   41.0242 O.3         1 MOL      -0.3841
     32 OD3        16.5428   15.3879   40.3444 O.3         1 MOL      -0.3864
     33 OD4        14.4888   17.7080   38.4000 O.3         1 MOL      -0.3745
     34 OD5        13.2976   15.0402   38.7726 O.3         1 MOL      -0.3405
     35 OD6        14.6233   12.9193   37.1916 O.3         1 MOL      -0.3924
     36 CD7        14.0013   18.0773   37.1025 C.3         1 MOL       0.0370
     37 H1          0.5469   12.1722   40.3742 H           1 MOL       0.2523
     38 H2          4.3105   12.6640   42.6152 H           1 MOL       0.0843
     39 H3          3.3597   15.3241   42.3430 H           1 MOL       0.2137
     40 H4          5.4442   15.2293   41.4101 H           1 MOL       0.0674
     41 H5          6.6331   13.2684   43.0407 H           1 MOL       0.2103
     42 H6          6.3548   12.3639   40.9194 H           1 MOL       0.0650
     43 H7          5.4561   14.3644   38.7964 H           1 MOL       0.0603
     44 H8          3.3889   13.0206   38.8381 H           1 MOL       0.1812
     45 H9          5.9542   12.7775   37.2862 H           1 MOL       0.0581
     46 H10         4.9509   11.5945   38.1231 H           1 MOL       0.0581
     47 H11         7.2277   11.1281   37.7964 H           1 MOL       0.2095
     48 H12         7.0621   15.5808   39.3180 H           1 MOL       0.0938
     49 H13         9.0770   15.8613   38.0415 H           1 MOL       0.0671
     50 H14        10.1460   13.3600   39.4773 H           1 MOL       0.0648
     51 H15        11.1173   16.2630   39.6592 H           1 MOL       0.0651
     52 H16         9.6317   14.5904   41.7708 H           1 MOL       0.0647
     53 H17         9.3622   16.7310   42.9958 H           1 MOL       0.0584
     54 H18        10.4153   17.5542   41.8427 H           1 MOL       0.0584
     55 H19         9.0017   13.9970   36.8127 H           1 MOL       0.2101
     56 H20        11.3816   15.1045   37.6292 H           1 MOL       0.2100
     57 H21        12.0898   16.2061   42.5000 H           1 MOL       0.2095
     58 H22        13.8974   13.9526   40.4166 H           1 MOL       0.0938
     59 H23        14.4902   15.7038   41.8952 H           1 MOL       0.0671
     60 H24        15.9248   17.3107   40.4470 H           1 MOL       0.0648
     61 H25        16.2196   16.6061   38.0357 H           1 MOL       0.0649
     62 H26        14.2087   15.4214   36.9982 H           1 MOL       0.0647
     63 H27        15.5955   13.4797   38.9049 H           1 MOL       0.0584
     64 H28        16.2910   14.0942   37.3986 H           1 MOL       0.0584
     65 H29        13.9583   17.7872   41.6443 H           1 MOL       0.2101
     66 H30        16.6983   15.4190   41.3157 H           1 MOL       0.2100
     67 H31        13.9451   12.5790   37.8185 H           1 MOL       0.2095
     68 H32        13.7665   19.1439   37.1257 H           1 MOL       0.0524
     69 H33        13.0824   17.5349   36.8651 H           1 MOL       0.0524
     70 H34        14.7382   17.8975   36.3143 H           1 MOL       0.0524
@<TRIPOS>BOND
     1     1     2   2
     2     1     4   1
     3     1    11   1
     4     2     3   1
     5     4     5   1
     6     4     6   1
     7     6     7   1
     8     6     8   1
     9     8     9   1
    10     8    10   1
    11     9    14   1
    12    10    11   1
    13    10    12   1
    14    12    13   1
    15    14    15   1
    16    14    23   1
    17    15    16   1
    18    15    20   1
    19    16    17   1
    20    16    21   1
    21    17    18   1
    22    17    22   1
    23    18    19   1
    24    18    23   1
    25    19    24   1
    26    22    25   1
    27    25    26   1
    28    25    34   1
    29    26    27   1
    30    26    31   1
    31    27    28   1
    32    27    32   1
    33    28    29   1
    34    28    33   1
    35    29    30   1
    36    29    34   1
    37    30    35   1
    38    33    36   1
    39     3    37   1
    40     4    38   1
    41     5    39   1
    42     6    40   1
    43     7    41   1
    44     8    42   1
    45    10    43   1
    46    11    44   1
    47    12    45   1
    48    12    46   1
    49    13    47   1
    50    14    48   1
    51    15    49   1
    52    16    50   1
    53    17    51   1
    54    18    52   1
    55    19    53   1
    56    19    54   1
    57    20    55   1
    58    21    56   1
    59    24    57   1
    60    25    58   1
    61    26    59   1
    62    27    60   1
    63    28    61   1
    64    29    62   1
    65    30    63   1
    66    30    64   1
    67    31    65   1
    68    32    66   1
    69    35    67   1
    70    36    68   1
    71    36    69   1
    72    36    70   1
@<TRIPOS>SUBSTRUCTURE
     1  MOL      1

