@<TRIPOS>MOLECULE
1u33_ligand_003
    70    72
SMALL
GAST_HUCK
****
This file was generated by PARSER (from files_GN.cpp)

@<TRIPOS>ATOM
      1 CA1         7.0830   14.7890   41.6322 C.2         1 MOL       0.1322
      2 NA1         6.6393   14.1234   40.5488 N.2         1 MOL      -0.2068
      3 OA7         6.0497   12.9663   40.5945 O.3         1 MOL      -0.3046
      4 CA2         7.7214   16.1117   41.4233 C.3         1 MOL       0.1504
      5 OA2         8.9645   15.8894   40.7536 O.3         1 MOL      -0.3713
      6 CA3         7.9481   16.9085   42.7427 C.3         1 MOL       0.1237
      7 OA3         6.7781   17.6273   43.0989 O.3         1 MOL      -0.3840
      8 CA4         8.3865   15.9963   43.9265 C.3         1 MOL       0.1169
      9 OA4         9.7002   15.5032   43.5979 O.3         1 MOL      -0.3402
     10 CA5         7.4139   14.7788   44.1039 C.3         1 MOL       0.0902
     11 NA5         6.9823   14.2202   42.8562 N.pl3       1 MOL      -0.2990
     12 CA6         6.1606   15.0610   44.9936 C.3         1 MOL       0.0694
     13 OA6         6.2478   14.4255   46.2694 O.3         1 MOL      -0.3927
     14 CB1        10.8679   15.9558   44.3239 C.3         1 MOL       0.1884
     15 CB2        11.2710   17.4496   44.1421 C.3         1 MOL       0.1341
     16 CB3        11.6173   17.7525   42.6552 C.3         1 MOL       0.1144
     17 CB4        12.7077   16.7700   42.1249 C.3         1 MOL       0.1184
     18 CB5        12.3270   15.2939   42.4830 C.3         1 MOL       0.1134
     19 CB6        13.4430   14.2670   42.1800 C.3         1 MOL       0.0730
     20 OB2        10.3108   18.3646   44.6707 O.3         1 MOL      -0.3841
     21 OB3        12.0503   19.1076   42.5363 O.3         1 MOL      -0.3864
     22 OB4        12.8019   16.8772   40.6882 O.3         1 MOL      -0.3401
     23 OB5        11.9776   15.1498   43.8808 O.3         1 MOL      -0.3405
     24 OB6        14.7336   14.7309   42.5673 O.3         1 MOL      -0.3924
     25 CD1        13.7567   17.8074   40.1273 C.3         1 MOL       0.1884
     26 CD2        13.3379   18.1803   38.6836 C.3         1 MOL       0.1341
     27 CD3        13.5510   16.9901   37.7127 C.3         1 MOL       0.1143
     28 CD4        14.9844   16.3942   37.8369 C.3         1 MOL       0.1150
     29 CD5        15.2995   16.0862   39.3334 C.3         1 MOL       0.1133
     30 CD6        16.7473   15.5897   39.5510 C.3         1 MOL       0.0730
     31 OD2        11.9732   18.5978   38.6917 O.3         1 MOL      -0.3841
     32 OD3        13.3131   17.4099   36.3712 O.3         1 MOL      -0.3864
     33 OD4        15.0352   15.1886   37.0397 O.3         1 MOL      -0.3745
     34 OD5        15.0896   17.2579   40.1547 O.3         1 MOL      -0.3405
     35 OD6        17.0729   15.5025   40.9372 O.3         1 MOL      -0.3924
     36 CD7        16.2152   14.9798   36.2440 C.3         1 MOL       0.0370
     37 H1          6.5281   12.4081   39.9359 H           1 MOL       0.2523
     38 H2          7.0905   16.7096   40.7601 H           1 MOL       0.0843
     39 H3          9.2402   16.7672   40.4153 H           1 MOL       0.2137
     40 H4          8.7089   17.6657   42.5576 H           1 MOL       0.0674
     41 H5          7.0191   18.0757   43.9340 H           1 MOL       0.2103
     42 H6          8.4190   16.5782   44.8516 H           1 MOL       0.0650
     43 H7          7.9806   13.9903   44.5957 H           1 MOL       0.0603
     44 H8          6.5528   13.3494   42.9048 H           1 MOL       0.1812
     45 H9          5.2447   14.6856   44.5251 H           1 MOL       0.0581
     46 H10         6.0185   16.1304   45.1604 H           1 MOL       0.0581
     47 H11         6.7745   15.0419   46.8165 H           1 MOL       0.2095
     48 H12        10.7302   15.7545   45.3860 H           1 MOL       0.0938
     49 H13        12.1848   17.6140   44.7242 H           1 MOL       0.0671
     50 H14        10.7182   17.6417   42.0404 H           1 MOL       0.0648
     51 H15        13.6563   17.0130   42.6117 H           1 MOL       0.0651
     52 H16        11.4653   14.9968   41.8725 H           1 MOL       0.0647
     53 H17        13.4666   14.0680   41.1106 H           1 MOL       0.0584
     54 H18        13.2256   13.3224   42.6875 H           1 MOL       0.0584
     55 H19         9.9372   18.8518   43.9120 H           1 MOL       0.2101
     56 H20        11.2528   19.6218   42.3074 H           1 MOL       0.2100
     57 H21        15.0011   14.1929   43.3584 H           1 MOL       0.2095
     58 H22        13.7878   18.7343   40.7048 H           1 MOL       0.0938
     59 H23        13.9465   19.0257   38.3530 H           1 MOL       0.0671
     60 H24        12.8200   16.2097   37.9448 H           1 MOL       0.0648
     61 H25        15.6856   17.1581   37.4839 H           1 MOL       0.0649
     62 H26        14.6356   15.2877   39.6675 H           1 MOL       0.0647
     63 H27        17.4527   16.2708   39.0761 H           1 MOL       0.0584
     64 H28        16.8621   14.5970   39.1128 H           1 MOL       0.0584
     65 H29        11.8822   19.2045   37.9265 H           1 MOL       0.2101
     66 H30        13.9763   18.1135   36.1926 H           1 MOL       0.2100
     67 H31        17.5793   16.3241   41.1192 H           1 MOL       0.2095
     68 H32        16.0938   14.0462   35.6933 H           1 MOL       0.0524
     69 H33        17.1027   14.9006   36.8730 H           1 MOL       0.0524
     70 H34        16.3515   15.7930   35.5260 H           1 MOL       0.0524
@<TRIPOS>BOND
     1     1     2   2
     2     1     4   1
     3     1    11   1
     4     2     3   1
     5     4     5   1
     6     4     6   1
     7     6     7   1
     8     6     8   1
     9     8     9   1
    10     8    10   1
    11     9    14   1
    12    10    11   1
    13    10    12   1
    14    12    13   1
    15    14    15   1
    16    14    23   1
    17    15    16   1
    18    15    20   1
    19    16    17   1
    20    16    21   1
    21    17    18   1
    22    17    22   1
    23    18    19   1
    24    18    23   1
    25    19    24   1
    26    22    25   1
    27    25    26   1
    28    25    34   1
    29    26    27   1
    30    26    31   1
    31    27    28   1
    32    27    32   1
    33    28    29   1
    34    28    33   1
    35    29    30   1
    36    29    34   1
    37    30    35   1
    38    33    36   1
    39     3    37   1
    40     4    38   1
    41     5    39   1
    42     6    40   1
    43     7    41   1
    44     8    42   1
    45    10    43   1
    46    11    44   1
    47    12    45   1
    48    12    46   1
    49    13    47   1
    50    14    48   1
    51    15    49   1
    52    16    50   1
    53    17    51   1
    54    18    52   1
    55    19    53   1
    56    19    54   1
    57    20    55   1
    58    21    56   1
    59    24    57   1
    60    25    58   1
    61    26    59   1
    62    27    60   1
    63    28    61   1
    64    29    62   1
    65    30    63   1
    66    30    64   1
    67    31    65   1
    68    32    66   1
    69    35    67   1
    70    36    68   1
    71    36    69   1
    72    36    70   1
@<TRIPOS>SUBSTRUCTURE
     1  MOL      1

