@<TRIPOS>MOLECULE
1u33_ligand_088
    70    72
SMALL
GAST_HUCK
****
This file was generated by PARSER (from files_GN.cpp)

@<TRIPOS>ATOM
      1 CA1        12.7189   15.7911   43.6009 C.2         1 MOL       0.1322
      2 NA1        13.6870   14.8805   43.8421 N.2         1 MOL      -0.2068
      3 OA7        14.8629   14.9263   43.2717 O.3         1 MOL      -0.3046
      4 CA2        11.3975   15.5908   44.2613 C.3         1 MOL       0.1504
      5 OA2        10.8754   14.3448   43.8077 O.3         1 MOL      -0.3713
      6 CA3        10.3806   16.7427   43.9843 C.3         1 MOL       0.1237
      7 OA3        10.4998   17.7938   44.9472 O.3         1 MOL      -0.3840
      8 CA4        10.5362   17.2821   42.5359 C.3         1 MOL       0.1169
      9 OA4        10.2294   16.1511   41.6831 O.3         1 MOL      -0.3402
     10 CA5        12.0003   17.7514   42.2460 C.3         1 MOL       0.0902
     11 NA5        12.9586   16.8020   42.7185 N.pl3       1 MOL      -0.2990
     12 CA6        12.3886   19.1871   42.7048 C.3         1 MOL       0.0694
     13 OA6        12.7638   19.2815   44.0701 O.3         1 MOL      -0.3927
     14 CB1         9.2944   16.3059   40.5956 C.3         1 MOL       0.1884
     15 CB2         8.8562   14.9334   40.0272 C.3         1 MOL       0.1341
     16 CB3        10.0336   14.2458   39.2917 C.3         1 MOL       0.1144
     17 CB4        10.6570   15.1462   38.1876 C.3         1 MOL       0.1184
     18 CB5        10.9206   16.5914   38.7474 C.3         1 MOL       0.1134
     19 CB6        11.1136   17.7130   37.6869 C.3         1 MOL       0.0730
     20 OB2         8.3530   14.0964   41.0729 O.3         1 MOL      -0.3841
     21 OB3         9.5721   13.0205   38.7329 O.3         1 MOL      -0.3864
     22 OB4        11.8312   14.4012   37.7592 O.3         1 MOL      -0.3401
     23 OB5         9.8423   17.1201   39.5486 O.3         1 MOL      -0.3405
     24 OB6         9.9983   17.7923   36.7878 O.3         1 MOL      -0.3924
     25 CD1        12.6749   14.9164   36.7166 C.3         1 MOL       0.1884
     26 CD2        13.3421   13.7760   35.9085 C.3         1 MOL       0.1341
     27 CD3        14.3773   12.9962   36.7652 C.3         1 MOL       0.1143
     28 CD4        15.4110   13.9497   37.4425 C.3         1 MOL       0.1150
     29 CD5        14.6732   15.1349   38.1467 C.3         1 MOL       0.1133
     30 CD6        15.6078   16.2791   38.6139 C.3         1 MOL       0.0730
     31 OD2        12.3449   12.8935   35.3822 O.3         1 MOL      -0.3841
     32 OD3        15.0469   12.0642   35.9110 O.3         1 MOL      -0.3864
     33 OD4        16.2000   13.2637   38.4534 O.3         1 MOL      -0.3745
     34 OD5        13.7143   15.7609   37.2598 O.3         1 MOL      -0.3405
     35 OD6        16.7291   15.8225   39.3742 O.3         1 MOL      -0.3924
     36 CD7        17.1745   12.3006   38.0166 C.3         1 MOL       0.0370
     37 H1         15.3944   14.2556   43.7411 H           1 MOL       0.2523
     38 H2         11.5449   15.5074   45.3371 H           1 MOL       0.0843
     39 H3         10.0543   14.1959   44.3333 H           1 MOL       0.2137
     40 H4          9.3645   16.3582   44.0980 H           1 MOL       0.0674
     41 H5         11.4578   17.9101   45.0848 H           1 MOL       0.2103
     42 H6          9.8351   18.1104   42.3844 H           1 MOL       0.0650
     43 H7         12.1010   17.7651   41.1630 H           1 MOL       0.0603
     44 H8         13.8615   16.8668   42.3655 H           1 MOL       0.1812
     45 H9         11.5593   19.8678   42.5278 H           1 MOL       0.0581
     46 H10        13.2427   19.5379   42.1117 H           1 MOL       0.0581
     47 H11        12.8484   20.2387   44.2313 H           1 MOL       0.2095
     48 H12         8.3963   16.8109   40.9679 H           1 MOL       0.0938
     49 H13         8.0400   15.0992   39.3160 H           1 MOL       0.0671
     50 H14        10.8067   14.0020   40.0270 H           1 MOL       0.0648
     51 H15         9.9431   15.2048   37.3553 H           1 MOL       0.0651
     52 H16        11.8352   16.5311   39.3504 H           1 MOL       0.0647
     53 H17        12.0219   17.5715   37.1053 H           1 MOL       0.0584
     54 H18        11.2102   18.6792   38.2022 H           1 MOL       0.0584
     55 H19         9.1125   13.9525   41.6770 H           1 MOL       0.2101
     56 H20         8.8757   13.2728   38.0901 H           1 MOL       0.2100
     57 H21         9.2383   18.0256   37.3561 H           1 MOL       0.2095
     58 H22        12.0901   15.5091   36.0057 H           1 MOL       0.0938
     59 H23        13.8604   14.2285   35.0518 H           1 MOL       0.0671
     60 H24        13.8575   12.4473   37.5513 H           1 MOL       0.0648
     61 H25        16.0741   14.3686   36.6730 H           1 MOL       0.0649
     62 H26        14.1455   14.7514   39.0261 H           1 MOL       0.0647
     63 H27        15.0302   16.9753   39.2332 H           1 MOL       0.0584
     64 H28        15.9893   16.8309   37.7465 H           1 MOL       0.0584
     65 H29        12.8419   12.2609   34.8290 H           1 MOL       0.2101
     66 H30        14.5086   11.2361   35.9685 H           1 MOL       0.2100
     67 H31        17.0986   16.6213   39.7821 H           1 MOL       0.2095
     68 H32        17.7962   12.0299   38.8668 H           1 MOL       0.0524
     69 H33        17.8121   12.7112   37.2310 H           1 MOL       0.0524
     70 H34        16.6900   11.3948   37.6620 H           1 MOL       0.0524
@<TRIPOS>BOND
     1     1     2   2
     2     1     4   1
     3     1    11   1
     4     2     3   1
     5     4     5   1
     6     4     6   1
     7     6     7   1
     8     6     8   1
     9     8     9   1
    10     8    10   1
    11     9    14   1
    12    10    11   1
    13    10    12   1
    14    12    13   1
    15    14    15   1
    16    14    23   1
    17    15    16   1
    18    15    20   1
    19    16    17   1
    20    16    21   1
    21    17    18   1
    22    17    22   1
    23    18    19   1
    24    18    23   1
    25    19    24   1
    26    22    25   1
    27    25    26   1
    28    25    34   1
    29    26    27   1
    30    26    31   1
    31    27    28   1
    32    27    32   1
    33    28    29   1
    34    28    33   1
    35    29    30   1
    36    29    34   1
    37    30    35   1
    38    33    36   1
    39     3    37   1
    40     4    38   1
    41     5    39   1
    42     6    40   1
    43     7    41   1
    44     8    42   1
    45    10    43   1
    46    11    44   1
    47    12    45   1
    48    12    46   1
    49    13    47   1
    50    14    48   1
    51    15    49   1
    52    16    50   1
    53    17    51   1
    54    18    52   1
    55    19    53   1
    56    19    54   1
    57    20    55   1
    58    21    56   1
    59    24    57   1
    60    25    58   1
    61    26    59   1
    62    27    60   1
    63    28    61   1
    64    29    62   1
    65    30    63   1
    66    30    64   1
    67    31    65   1
    68    32    66   1
    69    35    67   1
    70    36    68   1
    71    36    69   1
    72    36    70   1
@<TRIPOS>SUBSTRUCTURE
     1  MOL      1

