@<TRIPOS>MOLECULE
1u33_ligand_075
    70    72
SMALL
GAST_HUCK
****
This file was generated by PARSER (from files_GN.cpp)

@<TRIPOS>ATOM
      1 CA1        12.4537   15.8640   44.1397 C.2         1 MOL       0.1322
      2 NA1        13.4873   15.0972   44.5455 N.2         1 MOL      -0.2068
      3 OA7        14.7325   15.4807   44.4438 O.3         1 MOL      -0.3046
      4 CA2        11.0733   15.3536   44.3235 C.3         1 MOL       0.1504
      5 OA2        10.9030   14.2126   43.4835 O.3         1 MOL      -0.3713
      6 CA3         9.9681   16.4173   44.0354 C.3         1 MOL       0.1237
      7 OA3         9.7359   17.2098   45.2023 O.3         1 MOL      -0.3840
      8 CA4        10.3142   17.3227   42.8193 C.3         1 MOL       0.1169
      9 OA4        10.1546   16.4806   41.6460 O.3         1 MOL      -0.3402
     10 CA5        11.7603   17.9189   42.9291 C.3         1 MOL       0.0902
     11 NA5        12.7134   17.0420   43.5270 N.pl3       1 MOL      -0.2990
     12 CA6        11.8612   19.3050   43.6221 C.3         1 MOL       0.0694
     13 OA6        11.3338   19.3186   44.9410 O.3         1 MOL      -0.3927
     14 CB1         9.8268   17.1121   40.3853 C.3         1 MOL       0.1884
     15 CB2         9.1986   16.0807   39.4020 C.3         1 MOL       0.1341
     16 CB3        10.2735   15.1409   38.7841 C.3         1 MOL       0.1144
     17 CB4        11.4741   15.9524   38.2151 C.3         1 MOL       0.1184
     18 CB5        12.0311   16.8876   39.3309 C.3         1 MOL       0.1134
     19 CB6        13.2460   17.7543   38.9076 C.3         1 MOL       0.0730
     20 OB2         8.1871   15.3200   40.0692 O.3         1 MOL      -0.3841
     21 OB3         9.6653   14.3600   37.7546 O.3         1 MOL      -0.3864
     22 OB4        12.5714   15.1263   37.7788 O.3         1 MOL      -0.3401
     23 OB5        10.9728   17.7634   39.7897 O.3         1 MOL      -0.3405
     24 OB6        12.8909   19.1105   38.6525 O.3         1 MOL      -0.3924
     25 CD1        12.5204   14.4094   36.5347 C.3         1 MOL       0.1884
     26 CD2        13.9428   13.9211   36.1388 C.3         1 MOL       0.1341
     27 CD3        14.8194   15.1143   35.6517 C.3         1 MOL       0.1143
     28 CD4        14.1074   15.9404   34.5412 C.3         1 MOL       0.1150
     29 CD5        12.6826   16.3431   35.0325 C.3         1 MOL       0.1133
     30 CD6        11.8361   17.0444   33.9378 C.3         1 MOL       0.0730
     31 OD2        14.5742   13.2575   37.2409 O.3         1 MOL      -0.3841
     32 OD3        16.0666   14.6120   35.1647 O.3         1 MOL      -0.3864
     33 OD4        14.8693   17.1442   34.2807 O.3         1 MOL      -0.3745
     34 OD5        11.9387   15.1832   35.4663 O.3         1 MOL      -0.3405
     35 OD6        11.2787   16.1013   33.0196 O.3         1 MOL      -0.3924
     36 CD7        15.2418   17.4033   32.9169 C.3         1 MOL       0.0370
     37 H1         15.2655   14.6645   44.3719 H           1 MOL       0.2523
     38 H2         10.9596   15.0138   45.3575 H           1 MOL       0.0843
     39 H3         10.9293   14.5548   42.5651 H           1 MOL       0.2137
     40 H4          9.0201   15.9027   43.8216 H           1 MOL       0.0674
     41 H5          8.9472   16.8024   45.6172 H           1 MOL       0.2103
     42 H6          9.5732   18.1288   42.8014 H           1 MOL       0.0650
     43 H7         12.1260   18.0898   41.9205 H           1 MOL       0.0603
     44 H8         13.6436   17.2970   43.4442 H           1 MOL       0.1812
     45 H9         11.3241   20.0481   43.0328 H           1 MOL       0.0581
     46 H10        12.9118   19.6126   43.6741 H           1 MOL       0.0581
     47 H11        11.8100   18.6074   45.4130 H           1 MOL       0.2095
     48 H12         9.0661   17.8828   40.5521 H           1 MOL       0.0938
     49 H13         8.7146   16.6411   38.5925 H           1 MOL       0.0671
     50 H14        10.6396   14.4527   39.5535 H           1 MOL       0.0648
     51 H15        11.1347   16.5783   37.3844 H           1 MOL       0.0651
     52 H16        12.3658   16.2497   40.1594 H           1 MOL       0.0647
     53 H17        13.7386   17.3518   38.0150 H           1 MOL       0.0584
     54 H18        13.9763   17.7655   39.7243 H           1 MOL       0.0584
     55 H19         7.6214   14.9623   39.3516 H           1 MOL       0.2101
     56 H20         9.2084   13.6287   38.2211 H           1 MOL       0.2100
     57 H21        12.3606   19.1179   37.8292 H           1 MOL       0.2095
     58 H22        11.9010   13.5241   36.6762 H           1 MOL       0.0938
     59 H23        13.8459   13.1960   35.3209 H           1 MOL       0.0671
     60 H24        15.0320   15.7674   36.5085 H           1 MOL       0.0648
     61 H25        14.0063   15.3025   33.6552 H           1 MOL       0.0649
     62 H26        12.7772   17.0387   35.8751 H           1 MOL       0.0647
     63 H27        12.4586   17.7525   33.3800 H           1 MOL       0.0584
     64 H28        11.0173   17.5974   34.4157 H           1 MOL       0.0584
     65 H29        13.8762   12.7036   37.6585 H           1 MOL       0.2101
     66 H30        16.6746   15.3814   35.1787 H           1 MOL       0.2100
     67 H31        10.6100   15.6105   33.5459 H           1 MOL       0.2095
     68 H32        15.7527   18.3687   32.8746 H           1 MOL       0.0524
     69 H33        14.3615   17.4532   32.2673 H           1 MOL       0.0524
     70 H34        15.9266   16.6328   32.5506 H           1 MOL       0.0524
@<TRIPOS>BOND
     1     1     2   2
     2     1     4   1
     3     1    11   1
     4     2     3   1
     5     4     5   1
     6     4     6   1
     7     6     7   1
     8     6     8   1
     9     8     9   1
    10     8    10   1
    11     9    14   1
    12    10    11   1
    13    10    12   1
    14    12    13   1
    15    14    15   1
    16    14    23   1
    17    15    16   1
    18    15    20   1
    19    16    17   1
    20    16    21   1
    21    17    18   1
    22    17    22   1
    23    18    19   1
    24    18    23   1
    25    19    24   1
    26    22    25   1
    27    25    26   1
    28    25    34   1
    29    26    27   1
    30    26    31   1
    31    27    28   1
    32    27    32   1
    33    28    29   1
    34    28    33   1
    35    29    30   1
    36    29    34   1
    37    30    35   1
    38    33    36   1
    39     3    37   1
    40     4    38   1
    41     5    39   1
    42     6    40   1
    43     7    41   1
    44     8    42   1
    45    10    43   1
    46    11    44   1
    47    12    45   1
    48    12    46   1
    49    13    47   1
    50    14    48   1
    51    15    49   1
    52    16    50   1
    53    17    51   1
    54    18    52   1
    55    19    53   1
    56    19    54   1
    57    20    55   1
    58    21    56   1
    59    24    57   1
    60    25    58   1
    61    26    59   1
    62    27    60   1
    63    28    61   1
    64    29    62   1
    65    30    63   1
    66    30    64   1
    67    31    65   1
    68    32    66   1
    69    35    67   1
    70    36    68   1
    71    36    69   1
    72    36    70   1
@<TRIPOS>SUBSTRUCTURE
     1  MOL      1

