@<TRIPOS>MOLECULE
1u33_ligand_041
    70    72
SMALL
GAST_HUCK
****
This file was generated by PARSER (from files_GN.cpp)

@<TRIPOS>ATOM
      1 CA1        14.4934   15.6881   36.6038 C.2         1 MOL       0.1322
      2 NA1        15.2664   15.2589   35.5872 N.2         1 MOL      -0.2068
      3 OA7        16.5362   15.5484   35.4539 O.3         1 MOL      -0.3046
      4 CA2        13.0653   15.2718   36.6339 C.3         1 MOL       0.1504
      5 OA2        12.4674   15.4350   35.3434 O.3         1 MOL      -0.3713
      6 CA3        12.2377   16.0826   37.6624 C.3         1 MOL       0.1237
      7 OA3        10.9692   15.4526   37.8375 O.3         1 MOL      -0.3840
      8 CA4        12.9842   16.2066   39.0181 C.3         1 MOL       0.1169
      9 OA4        12.1036   16.9384   39.8994 O.3         1 MOL      -0.3402
     10 CA5        14.3688   16.9067   38.7838 C.3         1 MOL       0.0902
     11 NA5        15.0273   16.4563   37.5891 N.pl3       1 MOL      -0.2990
     12 CA6        15.3614   16.7400   39.9748 C.3         1 MOL       0.0694
     13 OA6        15.3841   17.8977   40.8048 O.3         1 MOL      -0.3927
     14 CB1        12.0939   16.7873   41.3376 C.3         1 MOL       0.1884
     15 CB2        11.9325   15.3356   41.8578 C.3         1 MOL       0.1341
     16 CB3        11.6700   15.3067   43.3890 C.3         1 MOL       0.1144
     17 CB4        10.4746   16.2292   43.8086 C.3         1 MOL       0.1184
     18 CB5        10.6384   17.6447   43.1529 C.3         1 MOL       0.1134
     19 CB6        11.6139   18.6282   43.8692 C.3         1 MOL       0.0730
     20 OB2        10.8634   14.7138   41.1399 O.3         1 MOL      -0.3841
     21 OB3        12.8700   15.6640   44.0766 O.3         1 MOL      -0.3864
     22 OB4         9.1739   15.7382   43.3982 O.3         1 MOL      -0.3401
     23 OB5        10.9383   17.5492   41.7410 O.3         1 MOL      -0.3405
     24 OB6        10.9000   19.5360   44.7013 O.3         1 MOL      -0.3924
     25 CD1         8.6699   14.4301   43.7698 C.3         1 MOL       0.1884
     26 CD2         8.0444   13.8005   42.4998 C.3         1 MOL       0.1341
     27 CD3         6.7278   14.5320   42.1261 C.3         1 MOL       0.1143
     28 CD4         5.7490   14.5020   43.3218 C.3         1 MOL       0.1150
     29 CD5         6.4246   15.0100   44.6377 C.3         1 MOL       0.1133
     30 CD6         5.4889   14.7543   45.8671 C.3         1 MOL       0.0730
     31 OD2         8.9840   13.8458   41.4249 O.3         1 MOL      -0.3841
     32 OD3         6.1412   13.9177   40.9827 O.3         1 MOL      -0.3864
     33 OD4         4.6127   15.3431   43.0210 O.3         1 MOL      -0.3745
     34 OD5         7.7207   14.4013   44.8557 O.3         1 MOL      -0.3405
     35 OD6         6.1622   14.2983   47.0368 O.3         1 MOL      -0.3924
     36 CD7         3.3597   14.6786   42.7849 C.3         1 MOL       0.0370
     37 H1         16.6339   15.8004   34.5107 H           1 MOL       0.2523
     38 H2         13.0324   14.2063   36.8886 H           1 MOL       0.0843
     39 H3         12.8464   14.7208   34.7851 H           1 MOL       0.2137
     40 H4         12.0580   17.0855   37.2615 H           1 MOL       0.0674
     41 H5         10.4315   16.0869   38.3523 H           1 MOL       0.2103
     42 H6         13.1618   15.1879   39.3697 H           1 MOL       0.0650
     43 H7         14.1943   17.9738   38.6385 H           1 MOL       0.0603
     44 H8         15.9492   16.7336   37.4613 H           1 MOL       0.1812
     45 H9         16.3836   16.5965   39.6008 H           1 MOL       0.0581
     46 H10        15.1136   15.8700   40.5870 H           1 MOL       0.0581
     47 H11        16.3413   18.0900   40.9154 H           1 MOL       0.2095
     48 H12        13.0039   17.2353   41.7457 H           1 MOL       0.0938
     49 H13        12.8543   14.7765   41.6591 H           1 MOL       0.0671
     50 H14        11.4754   14.2714   43.6777 H           1 MOL       0.0648
     51 H15        10.4580   16.3344   44.9017 H           1 MOL       0.0651
     52 H16         9.6520   18.1250   43.1740 H           1 MOL       0.0647
     53 H17        12.1547   19.2298   43.1340 H           1 MOL       0.0584
     54 H18        12.3487   18.1073   44.4770 H           1 MOL       0.0584
     55 H19        11.0997   13.7560   41.1101 H           1 MOL       0.2101
     56 H20        12.6142   15.8341   45.0115 H           1 MOL       0.2100
     57 H21        10.3299   20.0323   44.0820 H           1 MOL       0.2095
     58 H22         9.4843   13.7813   44.0882 H           1 MOL       0.0938
     59 H23         7.8224   12.7482   42.6932 H           1 MOL       0.0671
     60 H24         6.9531   15.5671   41.8661 H           1 MOL       0.0648
     61 H25         5.4536   13.4521   43.4804 H           1 MOL       0.0649
     62 H26         6.5910   16.0890   44.5566 H           1 MOL       0.0647
     63 H27         4.7363   13.9936   45.6477 H           1 MOL       0.0584
     64 H28         4.9565   15.6768   46.1169 H           1 MOL       0.0584
     65 H29         8.4451   13.7054   40.6060 H           1 MOL       0.2101
     66 H30         6.0419   12.9693   41.2141 H           1 MOL       0.2100
     67 H31         6.7948   15.0108   47.2499 H           1 MOL       0.2095
     68 H32         2.6399   15.4136   42.4123 H           1 MOL       0.0524
     69 H33         2.9816   14.2670   43.7289 H           1 MOL       0.0524
     70 H34         3.4551   13.8818   42.0429 H           1 MOL       0.0524
@<TRIPOS>BOND
     1     1     2   2
     2     1     4   1
     3     1    11   1
     4     2     3   1
     5     4     5   1
     6     4     6   1
     7     6     7   1
     8     6     8   1
     9     8     9   1
    10     8    10   1
    11     9    14   1
    12    10    11   1
    13    10    12   1
    14    12    13   1
    15    14    15   1
    16    14    23   1
    17    15    16   1
    18    15    20   1
    19    16    17   1
    20    16    21   1
    21    17    18   1
    22    17    22   1
    23    18    19   1
    24    18    23   1
    25    19    24   1
    26    22    25   1
    27    25    26   1
    28    25    34   1
    29    26    27   1
    30    26    31   1
    31    27    28   1
    32    27    32   1
    33    28    29   1
    34    28    33   1
    35    29    30   1
    36    29    34   1
    37    30    35   1
    38    33    36   1
    39     3    37   1
    40     4    38   1
    41     5    39   1
    42     6    40   1
    43     7    41   1
    44     8    42   1
    45    10    43   1
    46    11    44   1
    47    12    45   1
    48    12    46   1
    49    13    47   1
    50    14    48   1
    51    15    49   1
    52    16    50   1
    53    17    51   1
    54    18    52   1
    55    19    53   1
    56    19    54   1
    57    20    55   1
    58    21    56   1
    59    24    57   1
    60    25    58   1
    61    26    59   1
    62    27    60   1
    63    28    61   1
    64    29    62   1
    65    30    63   1
    66    30    64   1
    67    31    65   1
    68    32    66   1
    69    35    67   1
    70    36    68   1
    71    36    69   1
    72    36    70   1
@<TRIPOS>SUBSTRUCTURE
     1  MOL      1

