@<TRIPOS>MOLECULE
1u33_ligand_020
    70    72
SMALL
GAST_HUCK
****
This file was generated by PARSER (from files_GN.cpp)

@<TRIPOS>ATOM
      1 CA1        13.9882   16.9969   41.5003 C.2         1 MOL       0.1322
      2 NA1        14.9137   17.3804   40.5958 N.2         1 MOL      -0.2068
      3 OA7        15.7788   16.5784   40.0463 O.3         1 MOL      -0.3046
      4 CA2        13.8740   15.5904   41.9656 C.3         1 MOL       0.1504
      5 OA2        13.3275   14.7873   40.9184 O.3         1 MOL      -0.3713
      6 CA3        13.0075   15.4673   43.2539 C.3         1 MOL       0.1237
      7 OA3        13.8073   15.8821   44.3606 O.3         1 MOL      -0.3840
      8 CA4        11.6987   16.3099   43.1408 C.3         1 MOL       0.1169
      9 OA4        10.9184   15.6281   42.1341 O.3         1 MOL      -0.3402
     10 CA5        12.0474   17.8100   42.8282 C.3         1 MOL       0.0902
     11 NA5        13.1705   17.9784   41.9475 N.pl3       1 MOL      -0.2990
     12 CA6        12.2279   18.6920   44.1016 C.3         1 MOL       0.0694
     13 OA6        10.9716   19.1799   44.5795 O.3         1 MOL      -0.3927
     14 CB1         9.7270   16.2014   41.5550 C.3         1 MOL       0.1884
     15 CB2         8.9984   15.1308   40.7032 C.3         1 MOL       0.1341
     16 CB3         9.8903   14.7027   39.5027 C.3         1 MOL       0.1144
     17 CB4        10.3846   15.9283   38.6711 C.3         1 MOL       0.1184
     18 CB5        10.9505   17.0408   39.6172 C.3         1 MOL       0.1134
     19 CB6        11.2544   18.3932   38.9259 C.3         1 MOL       0.0730
     20 OB2         8.6727   14.0175   41.5299 O.3         1 MOL      -0.3841
     21 OB3         9.1768   13.8112   38.6425 O.3         1 MOL      -0.3864
     22 OB4        11.4025   15.4301   37.7707 O.3         1 MOL      -0.3401
     23 OB5        10.0193   17.3146   40.6899 O.3         1 MOL      -0.3405
     24 OB6        12.5489   18.3717   38.3367 O.3         1 MOL      -0.3924
     25 CD1        11.4895   15.9221   36.4112 C.3         1 MOL       0.1884
     26 CD2        11.2759   14.7607   35.4076 C.3         1 MOL       0.1341
     27 CD3        12.4840   13.7794   35.4248 C.3         1 MOL       0.1143
     28 CD4        13.8369   14.5308   35.2368 C.3         1 MOL       0.1150
     29 CD5        13.9305   15.6926   36.2751 C.3         1 MOL       0.1133
     30 CD6        15.1860   16.5861   36.1024 C.3         1 MOL       0.0730
     31 OD2        10.0586   14.0814   35.7125 O.3         1 MOL      -0.3841
     32 OD3        12.3005   12.7929   34.4091 O.3         1 MOL      -0.3864
     33 OD4        14.9617   13.6468   35.4545 O.3         1 MOL      -0.3745
     34 OD5        12.7698   16.5466   36.1783 O.3         1 MOL      -0.3405
     35 OD6        14.9566   17.6803   35.2168 O.3         1 MOL      -0.3924
     36 CD7        15.4372   12.8966   34.3233 C.3         1 MOL       0.0370
     37 H1         16.6225   17.0701   40.0899 H           1 MOL       0.2523
     38 H2         14.8732   15.1986   42.1861 H           1 MOL       0.0843
     39 H3         14.0841   14.5817   40.3254 H           1 MOL       0.2137
     40 H4         12.7588   14.4126   43.4164 H           1 MOL       0.0674
     41 H5         13.2641   15.7101   45.1521 H           1 MOL       0.2103
     42 H6         11.1516   16.2378   44.0855 H           1 MOL       0.0650
     43 H7         11.2098   18.2586   42.2978 H           1 MOL       0.0603
     44 H8         13.3362   18.8811   41.6191 H           1 MOL       0.1812
     45 H9         12.8513   19.5643   43.8811 H           1 MOL       0.0581
     46 H10        12.7085   18.1303   44.9027 H           1 MOL       0.0581
     47 H11        10.5476   19.5939   43.7987 H           1 MOL       0.2095
     48 H12         9.0540   16.5390   42.3471 H           1 MOL       0.0938
     49 H13         8.0620   15.5574   40.3300 H           1 MOL       0.0671
     50 H14        10.7620   14.1566   39.8824 H           1 MOL       0.0648
     51 H15         9.5158   16.3237   38.1282 H           1 MOL       0.0651
     52 H16        11.8898   16.6824   40.0417 H           1 MOL       0.0647
     53 H17        11.2556   19.2062   39.6556 H           1 MOL       0.0584
     54 H18        10.5010   18.6252   38.1671 H           1 MOL       0.0584
     55 H19         7.8545   13.6409   41.1476 H           1 MOL       0.2101
     56 H20         9.1247   12.9583   39.1246 H           1 MOL       0.2100
     57 H21        12.4684   18.9337   37.5419 H           1 MOL       0.2095
     58 H22        10.7314   16.6845   36.2097 H           1 MOL       0.0938
     59 H23        11.1822   15.1853   34.4045 H           1 MOL       0.0671
     60 H24        12.5001   13.2541   36.3827 H           1 MOL       0.0648
     61 H25        13.8562   14.9729   34.2341 H           1 MOL       0.0649
     62 H26        13.9811   15.2619   37.2819 H           1 MOL       0.0647
     63 H27        16.0316   16.0024   35.7328 H           1 MOL       0.0584
     64 H28        15.4641   17.0008   37.0753 H           1 MOL       0.0584
     65 H29         9.9285   13.4381   34.9844 H           1 MOL       0.2101
     66 H30        12.3262   13.2821   33.5603 H           1 MOL       0.2100
     67 H31        14.9697   17.2949   34.3154 H           1 MOL       0.2095
     68 H32        16.3025   12.3143   34.6412 H           1 MOL       0.0524
     69 H33        15.7512   13.5641   33.5182 H           1 MOL       0.0524
     70 H34        14.6780   12.2077   33.9523 H           1 MOL       0.0524
@<TRIPOS>BOND
     1     1     2   2
     2     1     4   1
     3     1    11   1
     4     2     3   1
     5     4     5   1
     6     4     6   1
     7     6     7   1
     8     6     8   1
     9     8     9   1
    10     8    10   1
    11     9    14   1
    12    10    11   1
    13    10    12   1
    14    12    13   1
    15    14    15   1
    16    14    23   1
    17    15    16   1
    18    15    20   1
    19    16    17   1
    20    16    21   1
    21    17    18   1
    22    17    22   1
    23    18    19   1
    24    18    23   1
    25    19    24   1
    26    22    25   1
    27    25    26   1
    28    25    34   1
    29    26    27   1
    30    26    31   1
    31    27    28   1
    32    27    32   1
    33    28    29   1
    34    28    33   1
    35    29    30   1
    36    29    34   1
    37    30    35   1
    38    33    36   1
    39     3    37   1
    40     4    38   1
    41     5    39   1
    42     6    40   1
    43     7    41   1
    44     8    42   1
    45    10    43   1
    46    11    44   1
    47    12    45   1
    48    12    46   1
    49    13    47   1
    50    14    48   1
    51    15    49   1
    52    16    50   1
    53    17    51   1
    54    18    52   1
    55    19    53   1
    56    19    54   1
    57    20    55   1
    58    21    56   1
    59    24    57   1
    60    25    58   1
    61    26    59   1
    62    27    60   1
    63    28    61   1
    64    29    62   1
    65    30    63   1
    66    30    64   1
    67    31    65   1
    68    32    66   1
    69    35    67   1
    70    36    68   1
    71    36    69   1
    72    36    70   1
@<TRIPOS>SUBSTRUCTURE
     1  MOL      1

