@<TRIPOS>MOLECULE
1uto_ligand_009
    21    21
SMALL
GAST_HUCK
****
This file was generated by PARSER (from files_GN.cpp)

@<TRIPOS>ATOM
      1 C1'        39.7438   25.7470   50.4485 C.ar        1 PEA      -0.0380
      2 C6'        40.2062   25.5353   51.7739 C.ar        1 PEA      -0.0602
      3 C5'        41.1067   24.4939   52.0672 C.ar        1 PEA      -0.0686
      4 C4'        41.5622   23.6464   51.0416 C.ar        1 PEA      -0.0687
      5 C3'        41.1140   23.8356   49.7260 C.ar        1 PEA      -0.0686
      6 C2'        40.2134   24.8772   49.4324 C.ar        1 PEA      -0.0602
      7 C2         38.7850   26.8722   50.2128 C.3         1 PEA       0.0211
      8 C1         38.2053   27.0688   48.7832 C.3         1 PEA      -0.0258
      9 N          37.1517   28.0863   48.7736 N.4         1 PEA       0.2200
     10 H1         39.8844   26.1393   52.5364 H           1 PEA       0.0557
     11 H2         41.4286   24.3535   53.0267 H           1 PEA       0.0599
     12 H3         42.2192   22.8951   51.2532 H           1 PEA       0.0559
     13 H4         41.4427   23.2259   48.9787 H           1 PEA       0.0599
     14 H5         39.9203   24.9883   48.4604 H           1 PEA       0.0557
     15 H6         39.2873   27.8039   50.4970 H           1 PEA       0.0478
     16 H7         37.9414   26.7337   50.8944 H           1 PEA       0.0478
     17 H8         37.7600   26.1406   48.4211 H           1 PEA       0.0837
     18 H9         39.0009   27.3782   48.1011 H           1 PEA       0.0837
     19 H10        36.7825   28.1758   47.8294 H           1 PEA       0.1996
     20 H11        37.5365   28.9767   49.0786 H           1 PEA       0.1996
     21 H12        36.4071   27.7965   49.4066 H           1 PEA       0.1996
@<TRIPOS>BOND
     1     1     2  ar
     2     1     6  ar
     3     1     7   1
     4     2     3  ar
     5     3     4  ar
     6     4     5  ar
     7     5     6  ar
     8     7     8   1
     9     8     9   1
    10     2    10   1
    11     3    11   1
    12     4    12   1
    13     5    13   1
    14     6    14   1
    15     7    15   1
    16     7    16   1
    17     8    17   1
    18     8    18   1
    19     9    19   1
    20     9    20   1
    21     9    21   1
@<TRIPOS>SUBSTRUCTURE
     1  PEA      1

