@<TRIPOS>MOLECULE
1uto_ligand_000
    21    21
SMALL
GAST_HUCK
****
This file was generated by PARSER (from files_GN.cpp)

@<TRIPOS>ATOM
      1 C1'        45.4774   18.5930   51.5738 C.ar        1 PEA      -0.0380
      2 C6'        46.2951   19.4008   50.7484 C.ar        1 PEA      -0.0602
      3 C5'        45.7846   19.9820   49.5727 C.ar        1 PEA      -0.0686
      4 C4'        44.4438   19.7668   49.2059 C.ar        1 PEA      -0.0687
      5 C3'        43.6161   18.9668   50.0117 C.ar        1 PEA      -0.0686
      6 C2'        44.1327   18.3734   51.1808 C.ar        1 PEA      -0.0602
      7 C2         46.0307   17.9722   52.8128 C.3         1 PEA       0.0211
      8 C1         45.1688   18.2212   54.0745 C.3         1 PEA      -0.0258
      9 N          45.9359   18.0280   55.3095 N.4         1 PEA       0.2200
     10 H1         47.2740   19.5661   50.9937 H           1 PEA       0.0557
     11 H2         46.3883   20.5615   48.9823 H           1 PEA       0.0599
     12 H3         44.0710   20.1907   48.3531 H           1 PEA       0.0559
     13 H4         42.6438   18.8057   49.7421 H           1 PEA       0.0599
     14 H5         43.5118   17.7928   51.7472 H           1 PEA       0.0557
     15 H6         47.0394   18.3488   53.0138 H           1 PEA       0.0478
     16 H7         46.1168   16.8949   52.6525 H           1 PEA       0.0478
     17 H8         44.3288   17.5239   54.0923 H           1 PEA       0.0837
     18 H9         44.7848   19.2415   54.0731 H           1 PEA       0.0837
     19 H10        45.2998   18.0742   56.1093 H           1 PEA       0.1996
     20 H11        46.6415   18.7665   55.3935 H           1 PEA       0.1996
     21 H12        46.3987   17.1153   55.2942 H           1 PEA       0.1996
@<TRIPOS>BOND
     1     1     2  ar
     2     1     6  ar
     3     1     7   1
     4     2     3  ar
     5     3     4  ar
     6     4     5  ar
     7     5     6  ar
     8     7     8   1
     9     8     9   1
    10     2    10   1
    11     3    11   1
    12     4    12   1
    13     5    13   1
    14     6    14   1
    15     7    15   1
    16     7    16   1
    17     8    17   1
    18     8    18   1
    19     9    19   1
    20     9    20   1
    21     9    21   1
@<TRIPOS>SUBSTRUCTURE
     1  PEA      1

