@<TRIPOS>MOLECULE
1uto_ligand_014
    21    21
SMALL
GAST_HUCK
****
This file was generated by PARSER (from files_GN.cpp)

@<TRIPOS>ATOM
      1 C1'        45.8322   24.4650   44.9406 C.ar        1 PEA      -0.0380
      2 C6'        44.5921   24.4212   44.2562 C.ar        1 PEA      -0.0602
      3 C5'        43.3944   24.7568   44.9136 C.ar        1 PEA      -0.0686
      4 C4'        43.4192   25.1305   46.2682 C.ar        1 PEA      -0.0687
      5 C3'        44.6401   25.1768   46.9621 C.ar        1 PEA      -0.0686
      6 C2'        45.8370   24.8385   46.3048 C.ar        1 PEA      -0.0602
      7 C2         47.0995   24.1082   44.2396 C.3         1 PEA       0.0211
      8 C1         47.6283   25.2360   43.3159 C.3         1 PEA      -0.0258
      9 N          46.7027   25.5921   42.2324 N.4         1 PEA       0.2200
     10 H1         44.5555   24.1504   43.2711 H           1 PEA       0.0557
     11 H2         42.5058   24.7192   44.4084 H           1 PEA       0.0599
     12 H3         42.5485   25.3751   46.7481 H           1 PEA       0.0559
     13 H4         44.6585   25.4495   47.9478 H           1 PEA       0.0599
     14 H5         46.7167   24.8790   46.8275 H           1 PEA       0.0557
     15 H6         46.9482   23.1934   43.6616 H           1 PEA       0.0478
     16 H7         47.8825   23.8891   44.9703 H           1 PEA       0.0478
     17 H8         48.5647   24.9060   42.8626 H           1 PEA       0.0837
     18 H9         47.8333   26.1308   43.9064 H           1 PEA       0.0837
     19 H10        47.1575   26.2523   41.5993 H           1 PEA       0.1996
     20 H11        45.8653   26.0272   42.6264 H           1 PEA       0.1996
     21 H12        46.4394   24.7519   41.7156 H           1 PEA       0.1996
@<TRIPOS>BOND
     1     1     2  ar
     2     1     6  ar
     3     1     7   1
     4     2     3  ar
     5     3     4  ar
     6     4     5  ar
     7     5     6  ar
     8     7     8   1
     9     8     9   1
    10     2    10   1
    11     3    11   1
    12     4    12   1
    13     5    13   1
    14     6    14   1
    15     7    15   1
    16     7    16   1
    17     8    17   1
    18     8    18   1
    19     9    19   1
    20     9    20   1
    21     9    21   1
@<TRIPOS>SUBSTRUCTURE
     1  PEA      1

