@<TRIPOS>MOLECULE
1uto_ligand_022
    21    21
SMALL
GAST_HUCK
****
This file was generated by PARSER (from files_GN.cpp)

@<TRIPOS>ATOM
      1 C1'        49.5888   27.2823   50.4727 C.ar        1 PEA      -0.0380
      2 C6'        48.4456   27.3997   49.6463 C.ar        1 PEA      -0.0602
      3 C5'        47.6547   26.2736   49.3471 C.ar        1 PEA      -0.0686
      4 C4'        48.0081   25.0114   49.8558 C.ar        1 PEA      -0.0687
      5 C3'        49.1484   24.8761   50.6682 C.ar        1 PEA      -0.0686
      6 C2'        49.9290   26.0044   50.9808 C.ar        1 PEA      -0.0602
      7 C2         50.4265   28.4750   50.7767 C.3         1 PEA       0.0211
      8 C1         51.3887   28.8364   49.6174 C.3         1 PEA      -0.0258
      9 N          52.4553   27.8380   49.4682 N.4         1 PEA       0.2200
     10 H1         48.1761   28.3104   49.2667 H           1 PEA       0.0557
     11 H2         46.8314   26.3732   48.7501 H           1 PEA       0.0599
     12 H3         47.4408   24.1919   49.6279 H           1 PEA       0.0559
     13 H4         49.4071   23.9556   51.0329 H           1 PEA       0.0599
     14 H5         50.7586   25.8837   51.5685 H           1 PEA       0.0557
     15 H6         51.0175   28.3103   51.6845 H           1 PEA       0.0478
     16 H7         49.7725   29.3293   50.9782 H           1 PEA       0.0478
     17 H8         51.8545   29.8025   49.8236 H           1 PEA       0.0837
     18 H9         50.8408   28.9148   48.6740 H           1 PEA       0.0837
     19 H10        53.0657   28.1049   48.6936 H           1 PEA       0.1996
     20 H11        52.0420   26.9258   49.2700 H           1 PEA       0.1996
     21 H12        53.0039   27.7878   50.3311 H           1 PEA       0.1996
@<TRIPOS>BOND
     1     1     2  ar
     2     1     6  ar
     3     1     7   1
     4     2     3  ar
     5     3     4  ar
     6     4     5  ar
     7     5     6  ar
     8     7     8   1
     9     8     9   1
    10     2    10   1
    11     3    11   1
    12     4    12   1
    13     5    13   1
    14     6    14   1
    15     7    15   1
    16     7    16   1
    17     8    17   1
    18     8    18   1
    19     9    19   1
    20     9    20   1
    21     9    21   1
@<TRIPOS>SUBSTRUCTURE
     1  PEA      1

