@<TRIPOS>MOLECULE
1uto_ligand_017
    21    21
SMALL
GAST_HUCK
****
This file was generated by PARSER (from files_GN.cpp)

@<TRIPOS>ATOM
      1 C1'        43.2149   28.2003   41.7597 C.ar        1 PEA      -0.0380
      2 C6'        43.2920   29.4642   41.1287 C.ar        1 PEA      -0.0602
      3 C5'        43.7490   30.5963   41.8315 C.ar        1 PEA      -0.0686
      4 C4'        44.1731   30.4717   43.1670 C.ar        1 PEA      -0.0687
      5 C3'        44.1486   29.2150   43.7939 C.ar        1 PEA      -0.0686
      6 C2'        43.6681   28.0894   43.0974 C.ar        1 PEA      -0.0602
      7 C2         42.7119   27.0085   41.0154 C.3         1 PEA       0.0211
      8 C1         41.2472   27.1061   40.5153 C.3         1 PEA      -0.0258
      9 N          40.2949   27.3713   41.5984 N.4         1 PEA       0.2200
     10 H1         43.0259   29.5648   40.1464 H           1 PEA       0.0557
     11 H2         43.7745   31.5090   41.3753 H           1 PEA       0.0599
     12 H3         44.5067   31.2926   43.6794 H           1 PEA       0.0559
     13 H4         44.4815   29.1176   44.7568 H           1 PEA       0.0599
     14 H5         43.6596   27.1839   43.5739 H           1 PEA       0.0557
     15 H6         42.7856   26.1119   41.6380 H           1 PEA       0.0478
     16 H7         43.3619   26.8473   40.1505 H           1 PEA       0.0478
     17 H8         40.9655   26.1591   40.0477 H           1 PEA       0.0837
     18 H9         41.1531   27.8928   39.7640 H           1 PEA       0.0837
     19 H10        39.3628   27.5065   41.2038 H           1 PEA       0.1996
     20 H11        40.5741   28.2174   42.0987 H           1 PEA       0.1996
     21 H12        40.2725   26.5829   42.2475 H           1 PEA       0.1996
@<TRIPOS>BOND
     1     1     2  ar
     2     1     6  ar
     3     1     7   1
     4     2     3  ar
     5     3     4  ar
     6     4     5  ar
     7     5     6  ar
     8     7     8   1
     9     8     9   1
    10     2    10   1
    11     3    11   1
    12     4    12   1
    13     5    13   1
    14     6    14   1
    15     7    15   1
    16     7    16   1
    17     8    17   1
    18     8    18   1
    19     9    19   1
    20     9    20   1
    21     9    21   1
@<TRIPOS>SUBSTRUCTURE
     1  PEA      1

