@<TRIPOS>MOLECULE
1uto_ligand_003
    21    21
SMALL
GAST_HUCK
****
This file was generated by PARSER (from files_GN.cpp)

@<TRIPOS>ATOM
      1 C1'        45.2167   20.2513   52.1364 C.ar        1 PEA      -0.0380
      2 C6'        44.1131   20.7451   51.3988 C.ar        1 PEA      -0.0602
      3 C5'        43.6450   22.0600   51.5884 C.ar        1 PEA      -0.0686
      4 C4'        44.2646   22.8998   52.5285 C.ar        1 PEA      -0.0687
      5 C3'        45.3652   22.4316   53.2643 C.ar        1 PEA      -0.0686
      6 C2'        45.8444   21.1244   53.0569 C.ar        1 PEA      -0.0602
      7 C2         45.7006   18.8529   51.9556 C.3         1 PEA       0.0211
      8 C1         45.6250   17.9787   53.2434 C.3         1 PEA      -0.0258
      9 N          46.8921   17.9656   53.9918 N.4         1 PEA       0.2200
     10 H1         43.6345   20.1545   50.7164 H           1 PEA       0.0557
     11 H2         42.8427   22.4015   51.0496 H           1 PEA       0.0599
     12 H3         43.9158   23.8476   52.6786 H           1 PEA       0.0559
     13 H4         45.8234   23.0401   53.9495 H           1 PEA       0.0599
     14 H5         46.6596   20.8161   53.5871 H           1 PEA       0.0557
     15 H6         46.7317   18.8810   51.5881 H           1 PEA       0.0478
     16 H7         45.1079   18.3547   51.1803 H           1 PEA       0.0478
     17 H8         45.4044   16.9423   52.9661 H           1 PEA       0.0837
     18 H9         44.8224   18.3244   53.9054 H           1 PEA       0.0837
     19 H10        46.7977   17.3704   54.8171 H           1 PEA       0.1996
     20 H11        47.1430   18.9100   54.2847 H           1 PEA       0.1996
     21 H12        47.6355   17.5921   53.3972 H           1 PEA       0.1996
@<TRIPOS>BOND
     1     1     2  ar
     2     1     6  ar
     3     1     7   1
     4     2     3  ar
     5     3     4  ar
     6     4     5  ar
     7     5     6  ar
     8     7     8   1
     9     8     9   1
    10     2    10   1
    11     3    11   1
    12     4    12   1
    13     5    13   1
    14     6    14   1
    15     7    15   1
    16     7    16   1
    17     8    17   1
    18     8    18   1
    19     9    19   1
    20     9    20   1
    21     9    21   1
@<TRIPOS>SUBSTRUCTURE
     1  PEA      1

