@<TRIPOS>MOLECULE
1uto_ligand_019
    21    21
SMALL
GAST_HUCK
****
This file was generated by PARSER (from files_GN.cpp)

@<TRIPOS>ATOM
      1 C1'        43.1241   26.4889   43.2731 C.ar        1 PEA      -0.0380
      2 C6'        43.9300   25.3298   43.3296 C.ar        1 PEA      -0.0602
      3 C5'        44.0306   24.5839   44.5206 C.ar        1 PEA      -0.0686
      4 C4'        43.3292   24.9949   45.6651 C.ar        1 PEA      -0.0687
      5 C3'        42.5200   26.1445   45.6212 C.ar        1 PEA      -0.0686
      6 C2'        42.4224   26.8930   44.4315 C.ar        1 PEA      -0.0602
      7 C2         43.0531   27.2586   41.9982 C.3         1 PEA       0.0211
      8 C1         42.1246   26.6022   40.9399 C.3         1 PEA      -0.0258
      9 N          40.7177   26.9526   41.1548 N.4         1 PEA       0.2200
     10 H1         44.4580   25.0201   42.5077 H           1 PEA       0.0557
     11 H2         44.6125   23.7442   44.5479 H           1 PEA       0.0599
     12 H3         43.4002   24.4582   46.5316 H           1 PEA       0.0559
     13 H4         42.0003   26.4343   46.4500 H           1 PEA       0.0599
     14 H5         41.8316   27.7285   44.4153 H           1 PEA       0.0557
     15 H6         44.0652   27.3450   41.5895 H           1 PEA       0.0478
     16 H7         42.7124   28.2794   42.1851 H           1 PEA       0.0478
     17 H8         42.2131   25.5116   40.9438 H           1 PEA       0.0837
     18 H9         42.4015   26.9614   39.9456 H           1 PEA       0.0837
     19 H10        40.1585   26.5345   40.4084 H           1 PEA       0.1996
     20 H11        40.6174   27.9708   41.1240 H           1 PEA       0.1996
     21 H12        40.3961   26.6029   42.0633 H           1 PEA       0.1996
@<TRIPOS>BOND
     1     1     2  ar
     2     1     6  ar
     3     1     7   1
     4     2     3  ar
     5     3     4  ar
     6     4     5  ar
     7     5     6  ar
     8     7     8   1
     9     8     9   1
    10     2    10   1
    11     3    11   1
    12     4    12   1
    13     5    13   1
    14     6    14   1
    15     7    15   1
    16     7    16   1
    17     8    17   1
    18     8    18   1
    19     9    19   1
    20     9    20   1
    21     9    21   1
@<TRIPOS>SUBSTRUCTURE
     1  PEA      1

