@<TRIPOS>MOLECULE
1uto_ligand_011
    21    21
SMALL
GAST_HUCK
****
This file was generated by PARSER (from files_GN.cpp)

@<TRIPOS>ATOM
      1 C1'        46.5941   21.4153   52.6369 C.ar        1 PEA      -0.0380
      2 C6'        47.4601   21.6118   51.5302 C.ar        1 PEA      -0.0602
      3 C5'        48.4097   22.6485   51.5301 C.ar        1 PEA      -0.0686
      4 C4'        48.5116   23.5116   52.6348 C.ar        1 PEA      -0.0687
      5 C3'        47.6589   23.3382   53.7421 C.ar        1 PEA      -0.0686
      6 C2'        46.6989   22.3112   53.7337 C.ar        1 PEA      -0.0602
      7 C2         45.5841   20.3209   52.6362 C.3         1 PEA       0.0211
      8 C1         45.7123   19.3347   53.8225 C.3         1 PEA      -0.0258
      9 N          47.0273   18.6698   53.8452 N.4         1 PEA       0.2200
     10 H1         47.4171   20.9867   50.7224 H           1 PEA       0.0557
     11 H2         49.0276   22.7753   50.7253 H           1 PEA       0.0599
     12 H3         49.1999   24.2679   52.6309 H           1 PEA       0.0559
     13 H4         47.7357   23.9681   54.5473 H           1 PEA       0.0599
     14 H5         46.0913   22.2095   54.5525 H           1 PEA       0.0557
     15 H6         45.6330   19.7211   51.7223 H           1 PEA       0.0478
     16 H7         44.5944   20.7853   52.6616 H           1 PEA       0.0478
     17 H8         44.9363   18.5717   53.7504 H           1 PEA       0.0837
     18 H9         45.5837   19.8565   54.7735 H           1 PEA       0.0837
     19 H10        47.0878   18.0521   54.6621 H           1 PEA       0.1996
     20 H11        47.7510   19.3884   53.9226 H           1 PEA       0.1996
     21 H12        47.1863   18.1199   52.9988 H           1 PEA       0.1996
@<TRIPOS>BOND
     1     1     2  ar
     2     1     6  ar
     3     1     7   1
     4     2     3  ar
     5     3     4  ar
     6     4     5  ar
     7     5     6  ar
     8     7     8   1
     9     8     9   1
    10     2    10   1
    11     3    11   1
    12     4    12   1
    13     5    13   1
    14     6    14   1
    15     7    15   1
    16     7    16   1
    17     8    17   1
    18     8    18   1
    19     9    19   1
    20     9    20   1
    21     9    21   1
@<TRIPOS>SUBSTRUCTURE
     1  PEA      1

