@<TRIPOS>MOLECULE
1uto_ligand_013
    21    21
SMALL
GAST_HUCK
****
This file was generated by PARSER (from files_GN.cpp)

@<TRIPOS>ATOM
      1 C1'        43.4987   25.9638   41.7578 C.ar        1 PEA      -0.0380
      2 C6'        44.2255   26.7520   40.8308 C.ar        1 PEA      -0.0602
      3 C5'        45.6168   26.9330   40.9571 C.ar        1 PEA      -0.0686
      4 C4'        46.3162   26.2777   41.9819 C.ar        1 PEA      -0.0687
      5 C3'        45.6260   25.4417   42.8817 C.ar        1 PEA      -0.0686
      6 C2'        44.2285   25.2926   42.7766 C.ar        1 PEA      -0.0602
      7 C2         42.0195   25.7693   41.6180 C.3         1 PEA       0.0211
      8 C1         41.1686   27.0507   41.3806 C.3         1 PEA      -0.0258
      9 N          40.9975   27.8368   42.6074 N.4         1 PEA       0.2200
     10 H1         43.7511   27.2093   40.0539 H           1 PEA       0.0557
     11 H2         46.1142   27.5367   40.3050 H           1 PEA       0.0599
     12 H3         47.3324   26.4005   42.0659 H           1 PEA       0.0559
     13 H4         46.1416   24.9444   43.6107 H           1 PEA       0.0599
     14 H5         43.7514   24.6701   43.4335 H           1 PEA       0.0557
     15 H6         41.6122   25.2607   42.5024 H           1 PEA       0.0478
     16 H7         41.8652   25.0859   40.7795 H           1 PEA       0.0478
     17 H8         40.1734   26.7567   41.0326 H           1 PEA       0.0837
     18 H9         41.6142   27.7016   40.6223 H           1 PEA       0.0837
     19 H10        40.5427   28.7226   42.3682 H           1 PEA       0.1996
     20 H11        41.9101   28.0294   43.0404 H           1 PEA       0.1996
     21 H12        40.4061   27.3153   43.2660 H           1 PEA       0.1996
@<TRIPOS>BOND
     1     1     2  ar
     2     1     6  ar
     3     1     7   1
     4     2     3  ar
     5     3     4  ar
     6     4     5  ar
     7     5     6  ar
     8     7     8   1
     9     8     9   1
    10     2    10   1
    11     3    11   1
    12     4    12   1
    13     5    13   1
    14     6    14   1
    15     7    15   1
    16     7    16   1
    17     8    17   1
    18     8    18   1
    19     9    19   1
    20     9    20   1
    21     9    21   1
@<TRIPOS>SUBSTRUCTURE
     1  PEA      1

