@<TRIPOS>MOLECULE
1uto_ligand_020
    21    21
SMALL
GAST_HUCK
****
This file was generated by PARSER (from files_GN.cpp)

@<TRIPOS>ATOM
      1 C1'        46.2962   24.7737   54.5231 C.ar        1 PEA      -0.0380
      2 C6'        45.3242   23.8389   54.0924 C.ar        1 PEA      -0.0602
      3 C5'        45.7076   22.5895   53.5718 C.ar        1 PEA      -0.0686
      4 C4'        47.0704   22.2597   53.4662 C.ar        1 PEA      -0.0687
      5 C3'        48.0487   23.1852   53.8718 C.ar        1 PEA      -0.0686
      6 C2'        47.6644   24.4348   54.3948 C.ar        1 PEA      -0.0602
      7 C2         45.8810   26.0776   55.1090 C.3         1 PEA       0.0211
      8 C1         45.5090   25.9782   56.6082 C.3         1 PEA      -0.0258
      9 N          44.2641   25.2384   56.8477 N.4         1 PEA       0.2200
     10 H1         44.3293   24.0604   54.1572 H           1 PEA       0.0557
     11 H2         44.9959   21.9207   53.2675 H           1 PEA       0.0599
     12 H3         47.3486   21.3487   53.0951 H           1 PEA       0.0559
     13 H4         49.0394   22.9448   53.7952 H           1 PEA       0.0599
     14 H5         48.3909   25.0896   54.6946 H           1 PEA       0.0557
     15 H6         45.0340   26.4837   54.5456 H           1 PEA       0.0478
     16 H7         46.6908   26.8078   55.0134 H           1 PEA       0.0478
     17 H8         45.3821   26.9871   57.0100 H           1 PEA       0.0837
     18 H9         46.3138   25.4907   57.1645 H           1 PEA       0.0837
     19 H10        44.0366   25.2731   57.8432 H           1 PEA       0.1996
     20 H11        44.3754   24.2640   56.5608 H           1 PEA       0.1996
     21 H12        43.5021   25.6659   56.3163 H           1 PEA       0.1996
@<TRIPOS>BOND
     1     1     2  ar
     2     1     6  ar
     3     1     7   1
     4     2     3  ar
     5     3     4  ar
     6     4     5  ar
     7     5     6  ar
     8     7     8   1
     9     8     9   1
    10     2    10   1
    11     3    11   1
    12     4    12   1
    13     5    13   1
    14     6    14   1
    15     7    15   1
    16     7    16   1
    17     8    17   1
    18     8    18   1
    19     9    19   1
    20     9    20   1
    21     9    21   1
@<TRIPOS>SUBSTRUCTURE
     1  PEA      1

