@<TRIPOS>MOLECULE
1uto_ligand_001
    21    21
SMALL
GAST_HUCK
****
This file was generated by PARSER (from files_GN.cpp)

@<TRIPOS>ATOM
      1 C1'        44.5066   20.0399   51.9419 C.ar        1 PEA      -0.0380
      2 C6'        44.3948   21.4521   51.9133 C.ar        1 PEA      -0.0602
      3 C5'        43.7933   22.1011   50.8223 C.ar        1 PEA      -0.0686
      4 C4'        43.2848   21.3536   49.7444 C.ar        1 PEA      -0.0687
      5 C3'        43.3711   19.9519   49.7659 C.ar        1 PEA      -0.0686
      6 C2'        43.9642   19.2979   50.8638 C.ar        1 PEA      -0.0602
      7 C2         45.1665   19.3498   53.0864 C.3         1 PEA       0.0211
      8 C1         46.3851   18.4945   52.6693 C.3         1 PEA      -0.0258
      9 N          47.1180   18.0022   53.8340 N.4         1 PEA       0.2200
     10 H1         44.7602   22.0154   52.6869 H           1 PEA       0.0557
     11 H2         43.7085   23.1217   50.8195 H           1 PEA       0.0599
     12 H3         42.8365   21.8248   48.9565 H           1 PEA       0.0559
     13 H4         43.0011   19.4016   48.9866 H           1 PEA       0.0599
     14 H5         44.0242   18.2797   50.8443 H           1 PEA       0.0557
     15 H6         44.4361   18.6916   53.5648 H           1 PEA       0.0478
     16 H7         45.4946   20.0758   53.8375 H           1 PEA       0.0478
     17 H8         47.0769   19.0790   52.0595 H           1 PEA       0.0837
     18 H9         46.0601   17.6244   52.0995 H           1 PEA       0.0837
     19 H10        47.8908   17.4265   53.4994 H           1 PEA       0.1996
     20 H11        46.5045   17.4450   54.4327 H           1 PEA       0.1996
     21 H12        47.4903   18.7899   54.3645 H           1 PEA       0.1996
@<TRIPOS>BOND
     1     1     2  ar
     2     1     6  ar
     3     1     7   1
     4     2     3  ar
     5     3     4  ar
     6     4     5  ar
     7     5     6  ar
     8     7     8   1
     9     8     9   1
    10     2    10   1
    11     3    11   1
    12     4    12   1
    13     5    13   1
    14     6    14   1
    15     7    15   1
    16     7    16   1
    17     8    17   1
    18     8    18   1
    19     9    19   1
    20     9    20   1
    21     9    21   1
@<TRIPOS>SUBSTRUCTURE
     1  PEA      1

