@<TRIPOS>MOLECULE
1vso_ligand_009
    38    38
SMALL
GAST_HUCK
****
This file was generated by PARSER (from files_GN.cpp)

@<TRIPOS>ATOM
      1 N          41.3449    5.7381    5.6739 N.4         1 AT1       0.2349
      2 C          39.1627    6.0266    4.5040 C.3         1 AT1       0.0583
      3 O          41.0316    3.9049    3.3534 O.co2       1 AT1      -0.5641
      4 C1         40.0920    5.0638    5.3063 C.3         1 AT1       0.0429
      5 C2         40.4126    3.8363    4.5530 C.2         1 AT1       0.0877
      6 O1         40.1185    2.6164    5.0576 O.co2       1 AT1      -0.5641
      7 O2         35.6921    5.9359    5.7004 O.3         1 AT1      -0.1588
      8 O3         37.2325    4.2343    3.0716 O.3         1 AT1      -0.2854
      9 N1         35.6463    5.1148    4.6949 N.2         1 AT1      -0.0623
     10 C3         37.1880    7.3659    7.0189 C.3         1 AT1      -0.0364
     11 C4         36.4315    3.0759    2.7608 C.3         1 AT1       0.1385
     12 C5         36.8633    5.0207    4.1421 C.2         1 AT1       0.2368
     13 C6         37.7254    5.8662    4.8402 C.2         1 AT1       0.0787
     14 C7         36.9448    6.4331    5.8629 C.2         1 AT1       0.1218
     15 C9         36.2862    8.6271    6.8321 C.3         1 AT1      -0.0985
     16 C10        36.7753    6.6220    8.3309 C.3         1 AT1      -0.0985
     17 C11        38.6618    7.8522    7.1939 C.3         1 AT1      -0.0985
     18 P          35.1143    3.4035    1.8029 P.3         1 AT1       0.0891
     19 O4         35.4122    4.4082    0.8101 O.co2       1 AT1      -0.5605
     20 O5         34.6960    2.2092    1.1057 O.co2       1 AT1      -0.5605
     21 O6         33.9871    3.8601    2.5785 O.co2       1 AT1      -0.5605
     22 H1         41.1330    6.5660    6.2378 H           1 AT1       0.2012
     23 H2         41.8546    6.0347    4.8382 H           1 AT1       0.2012
     24 H3         41.9273    5.1071    6.2266 H           1 AT1       0.2012
     25 H4         39.3003    5.8700    3.4288 H           1 AT1       0.0584
     26 H5         39.4507    7.0613    4.6654 H           1 AT1       0.0584
     27 H6         39.6088    4.7857    6.2448 H           1 AT1       0.1060
     28 H7         36.1128    2.5431    3.6647 H           1 AT1       0.0800
     29 H8         37.0793    2.3977    2.2008 H           1 AT1       0.0800
     30 H9         36.4098    9.3262    7.6643 H           1 AT1       0.0081
     31 H10        35.2280    8.3564    6.7811 H           1 AT1       0.0081
     32 H11        36.5443    9.1527    5.9091 H           1 AT1       0.0081
     33 H12        37.3797    5.7220    8.4692 H           1 AT1       0.0081
     34 H13        35.7241    6.3239    8.3056 H           1 AT1       0.0081
     35 H14        36.9141    7.2626    9.2067 H           1 AT1       0.0081
     36 H15        38.9718    8.4617    6.3458 H           1 AT1       0.0081
     37 H16        39.3409    7.0084    7.2981 H           1 AT1       0.0081
     38 H17        38.7658    8.4719    8.0883 H           1 AT1       0.0081
@<TRIPOS>BOND
     1     4     1   1
     2     2     4   1
     3    13     2   1
     4     5     3  ar
     5     4     5   1
     6     5     6  ar
     7     9     7   1
     8     7    14   1
     9     8    11   1
    10    12     8   1
    11    12     9   2
    12    14    10   1
    13    10    15   1
    14    10    16   1
    15    10    17   1
    16    11    18   1
    17    12    13   1
    18    13    14   2
    19    18    19  ar
    20    18    20  ar
    21    18    21  ar
    22     1    22   1
    23     1    23   1
    24     1    24   1
    25     2    25   1
    26     2    26   1
    27     4    27   1
    28    11    28   1
    29    11    29   1
    30    15    30   1
    31    15    31   1
    32    15    32   1
    33    16    33   1
    34    16    34   1
    35    16    35   1
    36    17    36   1
    37    17    37   1
    38    17    38   1
@<TRIPOS>SUBSTRUCTURE
     1  AT1      2

