@<TRIPOS>MOLECULE
1vso_ligand_002
    38    38
SMALL
GAST_HUCK
****
This file was generated by PARSER (from files_GN.cpp)

@<TRIPOS>ATOM
      1 N          41.6288    5.1412    5.3973 N.4         1 AT1       0.2349
      2 C          39.2178    5.2821    6.0410 C.3         1 AT1       0.0583
      3 O          40.9468    4.4817    2.8489 O.co2       1 AT1      -0.5641
      4 C1         40.3026    4.5081    5.2265 C.3         1 AT1       0.0429
      5 C2         39.9741    4.3878    3.7866 C.2         1 AT1       0.0877
      6 O1         38.8101    3.8132    3.3944 O.co2       1 AT1      -0.5641
      7 O2         39.0646    4.1805    9.5386 O.3         1 AT1      -0.1588
      8 O3         40.5977    6.9531    8.0997 O.3         1 AT1      -0.2854
      9 N1         39.7802    5.2616    9.6372 N.2         1 AT1      -0.0623
     10 C3         37.7540    2.8249    7.9035 C.3         1 AT1      -0.0364
     11 C4         40.6635    7.9597    9.1268 C.3         1 AT1       0.1385
     12 C5         39.9339    5.8019    8.4206 C.2         1 AT1       0.2368
     13 C6         39.2741    4.9948    7.4959 C.2         1 AT1       0.0787
     14 C7         38.7055    3.9435    8.2491 C.2         1 AT1       0.1218
     15 C9         36.3145    3.4175    7.8140 C.3         1 AT1      -0.0985
     16 C10        38.1104    2.0913    6.5710 C.3         1 AT1      -0.0985
     17 C11        37.7817    1.7345    9.0340 C.3         1 AT1      -0.0985
     18 P          41.1459    9.3860    8.4381 P.3         1 AT1       0.0891
     19 O4         40.2504    9.7444    7.3680 O.co2       1 AT1      -0.5605
     20 O5         41.1231   10.4503    9.4166 O.co2       1 AT1      -0.5605
     21 O6         42.4778    9.2724    7.9044 O.co2       1 AT1      -0.5605
     22 H1         41.8127    5.2825    6.3882 H           1 AT1       0.2012
     23 H2         41.6727    6.0431    4.9072 H           1 AT1       0.2012
     24 H3         42.3496    4.5247    5.0141 H           1 AT1       0.2012
     25 H4         38.2118    5.0462    5.6879 H           1 AT1       0.0584
     26 H5         39.3471    6.3596    5.8646 H           1 AT1       0.0584
     27 H6         40.4094    3.4959    5.6093 H           1 AT1       0.1060
     28 H7         41.3861    7.6672    9.8920 H           1 AT1       0.0800
     29 H8         39.6913    8.1247    9.6030 H           1 AT1       0.0800
     30 H9         35.5896    2.6328    7.5965 H           1 AT1       0.0081
     31 H10        36.2472    4.1702    7.0248 H           1 AT1       0.0081
     32 H11        36.0276    3.8881    8.7576 H           1 AT1       0.0081
     33 H12        39.1425    1.7279    6.5977 H           1 AT1       0.0081
     34 H13        37.9728    2.7448    5.7116 H           1 AT1       0.0081
     35 H14        37.4524    1.2336    6.4169 H           1 AT1       0.0081
     36 H15        37.4772    2.1544    9.9955 H           1 AT1       0.0081
     37 H16        38.7897    1.3254    9.1406 H           1 AT1       0.0081
     38 H17        37.1016    0.9149    8.8002 H           1 AT1       0.0081
@<TRIPOS>BOND
     1     4     1   1
     2     2     4   1
     3    13     2   1
     4     5     3  ar
     5     4     5   1
     6     5     6  ar
     7     9     7   1
     8     7    14   1
     9     8    11   1
    10    12     8   1
    11    12     9   2
    12    14    10   1
    13    10    15   1
    14    10    16   1
    15    10    17   1
    16    11    18   1
    17    12    13   1
    18    13    14   2
    19    18    19  ar
    20    18    20  ar
    21    18    21  ar
    22     1    22   1
    23     1    23   1
    24     1    24   1
    25     2    25   1
    26     2    26   1
    27     4    27   1
    28    11    28   1
    29    11    29   1
    30    15    30   1
    31    15    31   1
    32    15    32   1
    33    16    33   1
    34    16    34   1
    35    16    35   1
    36    17    36   1
    37    17    37   1
    38    17    38   1
@<TRIPOS>SUBSTRUCTURE
     1  AT1      2

