@<TRIPOS>MOLECULE
1vso_ligand_004
    38    38
SMALL
GAST_HUCK
****
This file was generated by PARSER (from files_GN.cpp)

@<TRIPOS>ATOM
      1 N          41.6632    5.2452    5.3561 N.4         1 AT1       0.2349
      2 C          39.3245    6.1050    5.5299 C.3         1 AT1       0.0583
      3 O          40.9439    4.5152    2.8373 O.co2       1 AT1      -0.5641
      4 C1         40.2404    4.8859    5.1790 C.3         1 AT1       0.0429
      5 C2         39.9986    4.3900    3.8001 C.2         1 AT1       0.0877
      6 O1         38.8008    3.8556    3.4396 O.co2       1 AT1      -0.5641
      7 O2         36.3291    5.0800    7.3885 O.3         1 AT1      -0.1588
      8 O3         36.7871    5.6549    3.9909 O.3         1 AT1      -0.2854
      9 N1         35.8787    5.1284    6.1702 N.2         1 AT1      -0.0623
     10 C3         38.3304    5.4247    8.7797 C.3         1 AT1      -0.0364
     11 C4         36.0379    4.6655    3.2614 C.3         1 AT1       0.1385
     12 C5         36.8677    5.5063    5.3510 C.2         1 AT1       0.2368
     13 C6         38.0121    5.7171    6.1203 C.2         1 AT1       0.0787
     14 C7         37.6358    5.4343    7.4474 C.2         1 AT1       0.1218
     15 C9         37.3885    6.0761    9.8479 C.3         1 AT1      -0.0985
     16 C10        38.5935    3.9379    9.1729 C.3         1 AT1      -0.0985
     17 C11        39.6873    6.1962    8.8280 C.3         1 AT1      -0.0985
     18 P          34.7376    5.3526    2.4804 P.3         1 AT1       0.0891
     19 O4         34.4582    6.6933    2.9387 O.co2       1 AT1      -0.5605
     20 O5         34.9775    5.4177    1.0576 O.co2       1 AT1      -0.5605
     21 O6         33.5418    4.5696    2.6734 O.co2       1 AT1      -0.5605
     22 H1         41.8410    5.3705    6.3547 H           1 AT1       0.2012
     23 H2         41.8747    6.1051    4.8506 H           1 AT1       0.2012
     24 H3         42.2531    4.4848    5.0138 H           1 AT1       0.2012
     25 H4         39.1620    6.7047    4.6271 H           1 AT1       0.0584
     26 H5         39.8328    6.7774    6.2202 H           1 AT1       0.0584
     27 H6         40.0526    4.0552    5.8686 H           1 AT1       0.1060
     28 H7         35.6762    3.8366    3.8828 H           1 AT1       0.0800
     29 H8         36.7102    4.2349    2.5221 H           1 AT1       0.0800
     30 H9         37.8580    6.0795   10.8384 H           1 AT1       0.0081
     31 H10        36.4493    5.5286    9.9377 H           1 AT1       0.0081
     32 H11        37.1579    7.1081    9.5798 H           1 AT1       0.0081
     33 H12        39.2394    3.4514    8.4373 H           1 AT1       0.0081
     34 H13        37.6576    3.3726    9.2281 H           1 AT1       0.0081
     35 H14        39.0829    3.8710   10.1486 H           1 AT1       0.0081
     36 H15        39.5487    7.2365    8.5232 H           1 AT1       0.0081
     37 H16        40.4291    5.7288    8.1787 H           1 AT1       0.0081
     38 H17        40.1009    6.1984    9.8394 H           1 AT1       0.0081
@<TRIPOS>BOND
     1     4     1   1
     2     2     4   1
     3    13     2   1
     4     5     3  ar
     5     4     5   1
     6     5     6  ar
     7     9     7   1
     8     7    14   1
     9     8    11   1
    10    12     8   1
    11    12     9   2
    12    14    10   1
    13    10    15   1
    14    10    16   1
    15    10    17   1
    16    11    18   1
    17    12    13   1
    18    13    14   2
    19    18    19  ar
    20    18    20  ar
    21    18    21  ar
    22     1    22   1
    23     1    23   1
    24     1    24   1
    25     2    25   1
    26     2    26   1
    27     4    27   1
    28    11    28   1
    29    11    29   1
    30    15    30   1
    31    15    31   1
    32    15    32   1
    33    16    33   1
    34    16    34   1
    35    16    35   1
    36    17    36   1
    37    17    37   1
    38    17    38   1
@<TRIPOS>SUBSTRUCTURE
     1  AT1      2

