@<TRIPOS>MOLECULE
1vso_ligand_011
    38    38
SMALL
GAST_HUCK
****
This file was generated by PARSER (from files_GN.cpp)

@<TRIPOS>ATOM
      1 N          41.1469    5.8816    5.7749 N.4         1 AT1       0.2349
      2 C          38.8167    6.0457    4.8604 C.3         1 AT1       0.0583
      3 O          40.9444    4.2582    3.3644 O.co2       1 AT1      -0.5641
      4 C1         39.9302    5.1155    5.4509 C.3         1 AT1       0.0429
      5 C2         40.3115    4.0114    4.5357 C.2         1 AT1       0.0877
      6 O1         40.0346    2.7277    4.8520 O.co2       1 AT1      -0.5641
      7 O2         35.4484    5.7575    6.2896 O.3         1 AT1      -0.1588
      8 O3         38.2324    7.5252    7.4270 O.3         1 AT1      -0.2854
      9 N1         36.0278    6.5458    7.1452 N.2         1 AT1      -0.0623
     10 C3         35.8826    4.4299    4.2225 C.3         1 AT1      -0.0364
     11 C4         37.7849    8.3763    8.5106 C.3         1 AT1       0.1385
     12 C5         37.3013    6.7494    6.7768 C.2         1 AT1       0.2368
     13 C6         37.5234    6.0290    5.6010 C.2         1 AT1       0.0787
     14 C7         36.3040    5.3927    5.3027 C.2         1 AT1       0.1218
     15 C9         36.6466    3.0828    4.4106 C.3         1 AT1      -0.0985
     16 C10        34.3465    4.1353    4.3400 C.3         1 AT1      -0.0985
     17 C11        36.1300    4.9981    2.7866 C.3         1 AT1      -0.0985
     18 P          37.5772    7.5754    9.9473 P.3         1 AT1       0.0891
     19 O4         38.7604    7.5965   10.7719 O.co2       1 AT1      -0.5605
     20 O5         36.5181    8.1701   10.7312 O.co2       1 AT1      -0.5605
     21 O6         37.2175    6.1946    9.7354 O.co2       1 AT1      -0.5605
     22 H1         40.9133    6.6268    6.4344 H           1 AT1       0.2012
     23 H2         41.5462    6.2937    4.9246 H           1 AT1       0.2012
     24 H3         41.8320    5.2570    6.2076 H           1 AT1       0.2012
     25 H4         38.6407    5.7897    3.8176 H           1 AT1       0.0584
     26 H5         39.1674    7.0816    4.8397 H           1 AT1       0.0584
     27 H6         39.5858    4.6743    6.3906 H           1 AT1       0.1060
     28 H7         36.8662    8.9049    8.2495 H           1 AT1       0.0800
     29 H8         38.5510    9.1418    8.6596 H           1 AT1       0.0800
     30 H9         36.3259    2.3474    3.6674 H           1 AT1       0.0081
     31 H10        36.4583    2.6643    5.4038 H           1 AT1       0.0081
     32 H11        37.7229    3.2228    4.2989 H           1 AT1       0.0081
     33 H12        33.7679    5.0504    4.1842 H           1 AT1       0.0081
     34 H13        34.0925    3.7332    5.3260 H           1 AT1       0.0081
     35 H14        34.0247    3.4024    3.5927 H           1 AT1       0.0081
     36 H15        37.1796    4.9416    2.5054 H           1 AT1       0.0081
     37 H16        35.8065    6.0407    2.7227 H           1 AT1       0.0081
     38 H17        35.5790    4.4253    2.0362 H           1 AT1       0.0081
@<TRIPOS>BOND
     1     4     1   1
     2     2     4   1
     3    13     2   1
     4     5     3  ar
     5     4     5   1
     6     5     6  ar
     7     9     7   1
     8     7    14   1
     9     8    11   1
    10    12     8   1
    11    12     9   2
    12    14    10   1
    13    10    15   1
    14    10    16   1
    15    10    17   1
    16    11    18   1
    17    12    13   1
    18    13    14   2
    19    18    19  ar
    20    18    20  ar
    21    18    21  ar
    22     1    22   1
    23     1    23   1
    24     1    24   1
    25     2    25   1
    26     2    26   1
    27     4    27   1
    28    11    28   1
    29    11    29   1
    30    15    30   1
    31    15    31   1
    32    15    32   1
    33    16    33   1
    34    16    34   1
    35    16    35   1
    36    17    36   1
    37    17    37   1
    38    17    38   1
@<TRIPOS>SUBSTRUCTURE
     1  AT1      2

