@<TRIPOS>MOLECULE
1vso_ligand_008
    38    38
SMALL
GAST_HUCK
****
This file was generated by PARSER (from files_GN.cpp)

@<TRIPOS>ATOM
      1 N          40.3173    6.3729    5.1614 N.4         1 AT1       0.2349
      2 C          39.0029    4.4802    6.1879 C.3         1 AT1       0.0583
      3 O          38.7202    4.6696    3.1550 O.co2       1 AT1      -0.5641
      4 C1         40.1100    4.9115    5.1592 C.3         1 AT1       0.0429
      5 C2         39.9244    4.5014    3.7488 C.2         1 AT1       0.0877
      6 O1         41.0106    4.4748    2.9336 O.co2       1 AT1      -0.5641
      7 O2         36.0166    2.8154    4.8352 O.3         1 AT1      -0.1588
      8 O3         39.1217    1.5428    5.7656 O.3         1 AT1      -0.2854
      9 N1         36.8359    1.8183    4.9847 N.2         1 AT1      -0.0623
     10 C3         35.7713    5.2440    5.0731 C.3         1 AT1      -0.0364
     11 C4         39.3250    0.3707    4.9395 C.3         1 AT1       0.1385
     12 C5         37.9956    2.2756    5.4813 C.2         1 AT1       0.2368
     13 C6         37.8797    3.6585    5.6587 C.2         1 AT1       0.0787
     14 C7         36.5835    3.9845    5.2286 C.2         1 AT1       0.1218
     15 C9         35.5231    5.4887    3.5452 C.3         1 AT1      -0.0985
     16 C10        34.3981    5.0329    5.7935 C.3         1 AT1      -0.0985
     17 C11        36.4186    6.5352    5.6570 C.3         1 AT1      -0.0985
     18 P          40.8466   -0.2492    5.1819 P.3         1 AT1       0.0891
     19 O4         41.7886    0.8173    5.3994 O.co2       1 AT1      -0.5605
     20 O5         40.9461   -1.1491    6.3052 O.co2       1 AT1      -0.5605
     21 O6         41.2886   -0.9590    4.0056 O.co2       1 AT1      -0.5605
     22 H1         40.4703    6.7019    6.1157 H           1 AT1       0.2012
     23 H2         39.4963    6.8418    4.7750 H           1 AT1       0.2012
     24 H3         41.1358    6.6119    4.5918 H           1 AT1       0.2012
     25 H4         38.6148    5.3553    6.6963 H           1 AT1       0.0584
     26 H5         39.4853    3.9074    6.9854 H           1 AT1       0.0584
     27 H6         41.0580    4.4748    5.4947 H           1 AT1       0.1060
     28 H7         39.2245    0.6205    3.8744 H           1 AT1       0.0800
     29 H8         38.5888   -0.4077    5.1942 H           1 AT1       0.0800
     30 H9         34.9019    6.3780    3.3819 H           1 AT1       0.0081
     31 H10        35.0044    4.6405    3.0813 H           1 AT1       0.0081
     32 H11        36.4715    5.6363    3.0173 H           1 AT1       0.0081
     33 H12        34.5556    4.8233    6.8562 H           1 AT1       0.0081
     34 H13        33.8432    4.1960    5.3585 H           1 AT1       0.0081
     35 H14        33.7690    5.9269    5.7125 H           1 AT1       0.0081
     36 H15        37.4005    6.7129    5.2112 H           1 AT1       0.0081
     37 H16        36.5164    6.4643    6.7402 H           1 AT1       0.0081
     38 H17        35.7961    7.4130    5.4483 H           1 AT1       0.0081
@<TRIPOS>BOND
     1     4     1   1
     2     2     4   1
     3    13     2   1
     4     5     3  ar
     5     4     5   1
     6     5     6  ar
     7     9     7   1
     8     7    14   1
     9     8    11   1
    10    12     8   1
    11    12     9   2
    12    14    10   1
    13    10    15   1
    14    10    16   1
    15    10    17   1
    16    11    18   1
    17    12    13   1
    18    13    14   2
    19    18    19  ar
    20    18    20  ar
    21    18    21  ar
    22     1    22   1
    23     1    23   1
    24     1    24   1
    25     2    25   1
    26     2    26   1
    27     4    27   1
    28    11    28   1
    29    11    29   1
    30    15    30   1
    31    15    31   1
    32    15    32   1
    33    16    33   1
    34    16    34   1
    35    16    35   1
    36    17    36   1
    37    17    37   1
    38    17    38   1
@<TRIPOS>SUBSTRUCTURE
     1  AT1      2

