@<TRIPOS>MOLECULE
1vso_ligand_005
    38    38
SMALL
GAST_HUCK
****
This file was generated by PARSER (from files_GN.cpp)

@<TRIPOS>ATOM
      1 N          41.5689    5.2825    5.3775 N.4         1 AT1       0.2349
      2 C          39.3640    6.4433    5.4919 C.3         1 AT1       0.0583
      3 O          38.6424    4.6739    3.1846 O.co2       1 AT1      -0.5641
      4 C1         40.1295    5.1454    5.0836 C.3         1 AT1       0.0429
      5 C2         39.9034    4.7875    3.6630 C.2         1 AT1       0.0877
      6 O1         40.9209    4.4766    2.8239 O.co2       1 AT1      -0.5641
      7 O2         37.4633    6.0775    8.6085 O.3         1 AT1      -0.1588
      8 O3         40.7764    6.9954    8.0714 O.3         1 AT1      -0.2854
      9 N1         38.6369    6.4183    9.0571 N.2         1 AT1      -0.0623
     10 C3         36.2281    5.5779    6.4993 C.3         1 AT1      -0.0364
     11 C4         41.1431    7.9987    9.0433 C.3         1 AT1       0.1385
     12 C5         39.4616    6.6070    8.0187 C.2         1 AT1       0.2368
     13 C6         38.7551    6.3554    6.8457 C.2         1 AT1       0.0787
     14 C7         37.4530    6.0229    7.2528 C.2         1 AT1       0.1218
     15 C9         34.9588    5.7602    7.4072 C.3         1 AT1      -0.0985
     16 C10        35.9712    6.3955    5.1845 C.3         1 AT1      -0.0985
     17 C11        36.3633    4.0605    6.1656 C.3         1 AT1      -0.0985
     18 P          40.4393    9.4959    8.8075 P.3         1 AT1       0.0891
     19 O4         40.0258    9.6566    7.4342 O.co2       1 AT1      -0.5605
     20 O5         39.2632    9.6316    9.6278 O.co2       1 AT1      -0.5605
     21 O6         41.3394   10.5622    9.1567 O.co2       1 AT1      -0.5605
     22 H1         41.7137    5.3234    6.3863 H           1 AT1       0.2012
     23 H2         41.9354    6.1382    4.9396 H           1 AT1       0.2012
     24 H3         42.0819    4.4777    5.0099 H           1 AT1       0.2012
     25 H4         38.5871    6.6845    4.7687 H           1 AT1       0.0584
     26 H5         40.0432    7.3053    5.4591 H           1 AT1       0.0584
     27 H6         39.7708    4.2995    5.6678 H           1 AT1       0.1060
     28 H7         42.2217    8.1261    8.9576 H           1 AT1       0.0800
     29 H8         40.9372    7.6522   10.0605 H           1 AT1       0.0800
     30 H9         34.0503    5.4271    6.8950 H           1 AT1       0.0081
     31 H10        34.8330    6.8143    7.6739 H           1 AT1       0.0081
     32 H11        35.0460    5.1793    8.3323 H           1 AT1       0.0081
     33 H12        36.5740    6.0161    4.3565 H           1 AT1       0.0081
     34 H13        36.2023    7.4548    5.3372 H           1 AT1       0.0081
     35 H14        34.9272    6.3172    4.8634 H           1 AT1       0.0081
     36 H15        36.5075    3.4710    7.0779 H           1 AT1       0.0081
     37 H16        37.2164    3.8794    5.5084 H           1 AT1       0.0081
     38 H17        35.4661    3.6905    5.6600 H           1 AT1       0.0081
@<TRIPOS>BOND
     1     4     1   1
     2     2     4   1
     3    13     2   1
     4     5     3  ar
     5     4     5   1
     6     5     6  ar
     7     9     7   1
     8     7    14   1
     9     8    11   1
    10    12     8   1
    11    12     9   2
    12    14    10   1
    13    10    15   1
    14    10    16   1
    15    10    17   1
    16    11    18   1
    17    12    13   1
    18    13    14   2
    19    18    19  ar
    20    18    20  ar
    21    18    21  ar
    22     1    22   1
    23     1    23   1
    24     1    24   1
    25     2    25   1
    26     2    26   1
    27     4    27   1
    28    11    28   1
    29    11    29   1
    30    15    30   1
    31    15    31   1
    32    15    32   1
    33    16    33   1
    34    16    34   1
    35    16    35   1
    36    17    36   1
    37    17    37   1
    38    17    38   1
@<TRIPOS>SUBSTRUCTURE
     1  AT1      2

