@<TRIPOS>MOLECULE
1w3k_ligand_015
    43    44
SMALL
GAST_HUCK
****
This file was generated by PARSER (from files_GN.cpp)

@<TRIPOS>ATOM
      1 C2         60.5686   41.7477   39.7786 C.3         1 BGC       0.1341
      2 C3         59.8434   40.9232   40.8811 C.3         1 BGC       0.1141
      3 C4         58.4999   41.5718   41.2843 C.3         1 BGC       0.1119
      4 C5         57.6280   41.8219   40.0118 C.3         1 BGC       0.1130
      5 C6         56.3426   42.6241   40.3518 C.3         1 BGC       0.0730
      6 C1         59.6190   41.9974   38.5593 C.3         1 BGC       0.1884
      7 O2         61.7309   41.0218   39.3726 O.3         1 BGC      -0.3841
      8 O3         60.6845   40.8036   42.0237 O.3         1 BGC      -0.3864
      9 O4         57.8277   40.7222   42.2158 O.3         1 BGC      -0.3865
     10 O5         58.3740   42.5732   39.0163 O.3         1 BGC      -0.3405
     11 O6         55.4534   42.6347   39.2439 O.3         1 BGC      -0.3924
     12 C6         63.0895   44.4808   35.7164 C.3         1 BGC       0.0782
     13 C5         61.6105   44.1323   36.0871 C.3         1 BGC       0.1538
     14 C4         61.4161   42.8528   36.9660 C.3         1 BGC       0.1259
     15 C3         61.5885   41.5684   36.1008 C.3         1 BGC       0.1245
     16 C2         60.7159   41.6757   34.8076 C.3         1 BGC       0.0256
     17 O6         64.0566   43.8680   36.5833 O.3         1 BGC      -0.3922
     18 O5         60.7818   44.0691   34.9016 O.3         1 BGC      -0.3215
     19 O4         60.1097   42.9543   37.5916 O.3         1 BGC      -0.3398
     20 O3         62.9635   41.3467   35.7661 O.3         1 BGC      -0.3838
     21 N1         60.9826   42.9535   34.1184 N.4         1 BGC       0.3939
     22 H1         60.8679   42.7200   40.1849 H           1 BGC       0.0671
     23 H2         59.6526   39.9138   40.5004 H           1 BGC       0.0648
     24 H3         58.7135   42.5303   41.7754 H           1 BGC       0.0647
     25 H4         57.3302   40.8545   39.5924 H           1 BGC       0.0647
     26 H5         56.6020   43.6512   40.6163 H           1 BGC       0.0584
     27 H6         55.8014   42.1809   41.1922 H           1 BGC       0.0584
     28 H7         59.4065   41.0558   38.0408 H           1 BGC       0.0938
     29 H8         62.4877   41.5702   39.6768 H           1 BGC       0.2101
     30 H9         61.4167   40.2125   41.7566 H           1 BGC       0.2100
     31 H10        57.2452   41.3304   42.7249 H           1 BGC       0.2100
     32 H11        55.0725   41.7308   39.2246 H           1 BGC       0.2095
     33 H12        63.2222   45.5663   35.8004 H           1 BGC       0.0586
     34 H13        63.3115   44.1911   34.6913 H           1 BGC       0.0586
     35 H14        61.2421   44.9764   36.6876 H           1 BGC       0.0702
     36 H15        62.1649   42.8625   37.7577 H           1 BGC       0.0654
     37 H16        61.2711   40.6965   36.6782 H           1 BGC       0.0674
     38 H17        59.6555   41.6241   35.0821 H           1 BGC       0.0850
     39 H18        60.9392   40.8418   34.1387 H           1 BGC       0.0850
     40 H19        63.9458   44.3423   37.4428 H           1 BGC       0.2095
     41 H20        62.9760   40.4552   35.3438 H           1 BGC       0.2101
     42 H21        60.3500   43.0147   33.3159 H           1 BGC       0.2348
     43 H22        61.9454   42.9303   33.7820 H           1 BGC       0.2348
@<TRIPOS>BOND
     1     1     2   1
     2     6     1   1
     3     1     7   1
     4     2     3   1
     5     2     8   1
     6     4     3   1
     7     3     9   1
     8     4     5   1
     9    10     4   1
    10     5    11   1
    11     6    10   1
    12    19     6   1
    13    13    12   1
    14    12    17   1
    15    14    13   1
    16    13    18   1
    17    14    15   1
    18    14    19   1
    19    15    16   1
    20    15    20   1
    21    16    21   1
    22    18    21   1
    23     1    22   1
    24     2    23   1
    25     3    24   1
    26     4    25   1
    27     5    26   1
    28     5    27   1
    29     6    28   1
    30     7    29   1
    31     8    30   1
    32     9    31   1
    33    11    32   1
    34    12    33   1
    35    12    34   1
    36    13    35   1
    37    14    36   1
    38    15    37   1
    39    16    38   1
    40    16    39   1
    41    17    40   1
    42    20    41   1
    43    21    42   1
    44    21    43   1
@<TRIPOS>SUBSTRUCTURE
     1  BGC      1

