@<TRIPOS>MOLECULE
1w3k_ligand_005
    43    44
SMALL
GAST_HUCK
****
This file was generated by PARSER (from files_GN.cpp)

@<TRIPOS>ATOM
      1 C2         59.9871   47.3916   36.2652 C.3         1 BGC       0.1341
      2 C3         60.8387   48.2901   37.2107 C.3         1 BGC       0.1141
      3 C4         60.4245   48.0808   38.6960 C.3         1 BGC       0.1119
      4 C5         60.3787   46.5578   39.0566 C.3         1 BGC       0.1130
      5 C6         59.7240   46.2645   40.4327 C.3         1 BGC       0.0730
      6 C1         60.1567   45.9190   36.7198 C.3         1 BGC       0.1884
      7 O2         60.4169   47.5409   34.9124 O.3         1 BGC      -0.3841
      8 O3         60.7009   49.6690   36.8624 O.3         1 BGC      -0.3864
      9 O4         61.3299   48.7769   39.5556 O.3         1 BGC      -0.3865
     10 O5         59.6510   45.7946   38.0677 O.3         1 BGC      -0.3405
     11 O6         60.5319   46.6971   41.5251 O.3         1 BGC      -0.3924
     12 C6         60.4636   41.3709   36.8363 C.3         1 BGC       0.0782
     13 C5         60.5622   42.9141   36.8470 C.3         1 BGC       0.1538
     14 C4         59.8410   43.6398   35.6479 C.3         1 BGC       0.1259
     15 C3         60.6992   43.5645   34.3489 C.3         1 BGC       0.1245
     16 C2         62.1638   43.9673   34.6451 C.3         1 BGC       0.0256
     17 O6         59.9454   40.8783   38.0723 O.3         1 BGC      -0.3922
     18 O5         61.9480   43.3230   36.9469 O.3         1 BGC      -0.3215
     19 O4         59.4232   45.0135   35.8678 O.3         1 BGC      -0.3398
     20 O3         60.6425   42.2489   33.7888 O.3         1 BGC      -0.3838
     21 N1         62.6904   43.2028   35.7938 N.4         1 BGC       0.3939
     22 H1         58.9339   47.6806   36.3254 H           1 BGC       0.0671
     23 H2         61.8957   48.0203   37.0923 H           1 BGC       0.0648
     24 H3         59.4302   48.5159   38.8447 H           1 BGC       0.0647
     25 H4         61.4015   46.1726   39.0956 H           1 BGC       0.0647
     26 H5         59.5658   45.1841   40.5325 H           1 BGC       0.0584
     27 H6         58.7488   46.7563   40.4987 H           1 BGC       0.0584
     28 H7         61.2224   45.6937   36.6791 H           1 BGC       0.0938
     29 H8         59.6687   47.1855   34.3885 H           1 BGC       0.2101
     30 H9         61.6190   50.0166   36.8294 H           1 BGC       0.2100
     31 H10        62.1089   48.1890   39.6389 H           1 BGC       0.2100
     32 H11        61.4528   46.5069   41.2482 H           1 BGC       0.2095
     33 H12        61.4433   40.9204   36.6651 H           1 BGC       0.0586
     34 H13        59.7879   41.0446   36.0423 H           1 BGC       0.0586
     35 H14        60.0702   43.2354   37.7695 H           1 BGC       0.0702
     36 H15        58.9044   43.1115   35.4453 H           1 BGC       0.0654
     37 H16        60.2831   44.2480   33.6014 H           1 BGC       0.0674
     38 H17        62.2218   45.0315   34.8596 H           1 BGC       0.0850
     39 H18        62.7798   43.7787   33.7655 H           1 BGC       0.0850
     40 H19        60.6388   41.0714   38.7405 H           1 BGC       0.2095
     41 H20        61.4800   42.1430   33.2880 H           1 BGC       0.2101
     42 H21        63.6291   43.5559   35.9922 H           1 BGC       0.2348
     43 H22        62.7670   42.2228   35.5239 H           1 BGC       0.2348
@<TRIPOS>BOND
     1     1     2   1
     2     6     1   1
     3     1     7   1
     4     2     3   1
     5     2     8   1
     6     4     3   1
     7     3     9   1
     8     4     5   1
     9    10     4   1
    10     5    11   1
    11     6    10   1
    12    19     6   1
    13    13    12   1
    14    12    17   1
    15    14    13   1
    16    13    18   1
    17    14    15   1
    18    14    19   1
    19    15    16   1
    20    15    20   1
    21    16    21   1
    22    18    21   1
    23     1    22   1
    24     2    23   1
    25     3    24   1
    26     4    25   1
    27     5    26   1
    28     5    27   1
    29     6    28   1
    30     7    29   1
    31     8    30   1
    32     9    31   1
    33    11    32   1
    34    12    33   1
    35    12    34   1
    36    13    35   1
    37    14    36   1
    38    15    37   1
    39    16    38   1
    40    16    39   1
    41    17    40   1
    42    20    41   1
    43    21    42   1
    44    21    43   1
@<TRIPOS>SUBSTRUCTURE
     1  BGC      1

