@<TRIPOS>MOLECULE
1w3k_ligand_032
    43    44
SMALL
GAST_HUCK
****
This file was generated by PARSER (from files_GN.cpp)

@<TRIPOS>ATOM
      1 C2         60.5657   44.7780   40.0719 C.3         1 BGC       0.1341
      2 C3         59.7692   45.7909   40.9410 C.3         1 BGC       0.1141
      3 C4         60.2820   47.2417   40.7167 C.3         1 BGC       0.1119
      4 C5         60.3239   47.5905   39.1976 C.3         1 BGC       0.1130
      5 C6         61.0213   48.9552   38.9498 C.3         1 BGC       0.0730
      6 C1         60.5621   45.2230   38.5826 C.3         1 BGC       0.1884
      7 O2         60.0097   43.4647   40.1962 O.3         1 BGC      -0.3841
      8 O3         59.8604   45.4367   42.3245 O.3         1 BGC      -0.3864
      9 O4         59.4530   48.1601   41.4321 O.3         1 BGC      -0.3865
     10 O5         61.0413   46.5798   38.4520 O.3         1 BGC      -0.3405
     11 O6         60.5553   49.5785   37.7546 O.3         1 BGC      -0.3924
     12 C6         62.6480   41.7186   37.1226 C.3         1 BGC       0.0782
     13 C5         62.2129   42.8203   36.1248 C.3         1 BGC       0.1538
     14 C4         61.0254   43.6785   36.6780 C.3         1 BGC       0.1259
     15 C3         60.5076   44.6282   35.5561 C.3         1 BGC       0.1245
     16 C2         60.2828   43.8473   34.2312 C.3         1 BGC       0.0256
     17 O6         63.2595   40.6200   36.4513 O.3         1 BGC      -0.3922
     18 O5         61.8371   42.1865   34.8792 O.3         1 BGC      -0.3215
     19 O4         61.4869   44.3930   37.8473 O.3         1 BGC      -0.3398
     20 O3         59.2903   45.2736   35.9291 O.3         1 BGC      -0.3838
     21 N1         61.5232   43.1068   33.9089 N.4         1 BGC       0.3939
     22 H1         61.6001   44.7303   40.4304 H           1 BGC       0.0671
     23 H2         58.7137   45.7414   40.6628 H           1 BGC       0.0648
     24 H3         61.2886   47.3182   41.1325 H           1 BGC       0.0647
     25 H4         59.2975   47.6531   38.8186 H           1 BGC       0.0647
     26 H5         62.1073   48.8106   38.8735 H           1 BGC       0.0584
     27 H6         60.8166   49.6409   39.7770 H           1 BGC       0.0584
     28 H7         59.5361   45.1519   38.1997 H           1 BGC       0.0938
     29 H8         59.0885   43.5316   39.8645 H           1 BGC       0.2101
     30 H9         60.8163   45.4712   42.5395 H           1 BGC       0.2100
     31 H10        58.5639   48.0786   41.0293 H           1 BGC       0.2100
     32 H11        60.8018   48.9565   37.0360 H           1 BGC       0.2095
     33 H12        61.7886   41.3449   37.6884 H           1 BGC       0.0586
     34 H13        63.3770   42.1260   37.8312 H           1 BGC       0.0586
     35 H14        63.0810   43.4698   35.9425 H           1 BGC       0.0702
     36 H15        60.2176   42.9916   36.9588 H           1 BGC       0.0654
     37 H16        61.2519   45.4093   35.3712 H           1 BGC       0.0674
     38 H17        60.0510   44.5416   33.4177 H           1 BGC       0.0850
     39 H18        59.4498   43.1402   34.3309 H           1 BGC       0.0850
     40 H19        62.5132   40.0831   36.1012 H           1 BGC       0.2095
     41 H20        58.7496   44.5705   36.3475 H           1 BGC       0.2101
     42 H21        62.2879   43.7847   33.8122 H           1 BGC       0.2348
     43 H22        61.4143   42.6219   33.0121 H           1 BGC       0.2348
@<TRIPOS>BOND
     1     1     2   1
     2     6     1   1
     3     1     7   1
     4     2     3   1
     5     2     8   1
     6     4     3   1
     7     3     9   1
     8     4     5   1
     9    10     4   1
    10     5    11   1
    11     6    10   1
    12    19     6   1
    13    13    12   1
    14    12    17   1
    15    14    13   1
    16    13    18   1
    17    14    15   1
    18    14    19   1
    19    15    16   1
    20    15    20   1
    21    16    21   1
    22    18    21   1
    23     1    22   1
    24     2    23   1
    25     3    24   1
    26     4    25   1
    27     5    26   1
    28     5    27   1
    29     6    28   1
    30     7    29   1
    31     8    30   1
    32     9    31   1
    33    11    32   1
    34    12    33   1
    35    12    34   1
    36    13    35   1
    37    14    36   1
    38    15    37   1
    39    16    38   1
    40    16    39   1
    41    17    40   1
    42    20    41   1
    43    21    42   1
    44    21    43   1
@<TRIPOS>SUBSTRUCTURE
     1  BGC      1

