@<TRIPOS>MOLECULE
1w3k_ligand_021
    43    44
SMALL
GAST_HUCK
****
This file was generated by PARSER (from files_GN.cpp)

@<TRIPOS>ATOM
      1 C2         60.9173   43.4832   39.7710 C.3         1 BGC       0.1341
      2 C3         60.7747   43.2944   41.3089 C.3         1 BGC       0.1141
      3 C4         60.1104   44.5154   41.9936 C.3         1 BGC       0.1119
      4 C5         58.7954   44.9200   41.2548 C.3         1 BGC       0.1130
      5 C6         58.2291   46.2773   41.7612 C.3         1 BGC       0.0730
      6 C1         59.5583   43.9154   39.1343 C.3         1 BGC       0.1884
      7 O2         61.3572   42.2496   39.1990 O.3         1 BGC      -0.3841
      8 O3         62.0483   43.0587   41.9081 O.3         1 BGC      -0.3864
      9 O4         59.8382   44.1963   43.3611 O.3         1 BGC      -0.3865
     10 O5         59.0362   45.0554   39.8360 O.3         1 BGC      -0.3405
     11 O6         57.7577   46.2080   43.1038 O.3         1 BGC      -0.3924
     12 C6         61.0704   46.1876   35.9082 C.3         1 BGC       0.0782
     13 C5         60.5506   44.7709   35.5354 C.3         1 BGC       0.1538
     14 C4         60.5085   43.8140   36.7653 C.3         1 BGC       0.1259
     15 C3         60.0733   42.3985   36.2637 C.3         1 BGC       0.1245
     16 C2         61.0027   41.9459   35.1141 C.3         1 BGC       0.0256
     17 O6         60.6429   47.1498   34.9478 O.3         1 BGC      -0.3922
     18 O5         61.4285   44.2212   34.5265 O.3         1 BGC      -0.3215
     19 O4         59.6308   44.3832   37.7635 O.3         1 BGC      -0.3398
     20 O3         60.1184   41.4527   37.3338 O.3         1 BGC      -0.3838
     21 N1         61.0450   42.9807   34.0650 N.4         1 BGC       0.3939
     22 H1         61.6616   44.2596   39.5670 H           1 BGC       0.0671
     23 H2         60.1531   42.4195   41.5020 H           1 BGC       0.0648
     24 H3         60.8085   45.3603   41.9748 H           1 BGC       0.0647
     25 H4         58.0330   44.1518   41.4158 H           1 BGC       0.0647
     26 H5         57.3884   46.5722   41.1309 H           1 BGC       0.0584
     27 H6         58.9930   47.0566   41.6922 H           1 BGC       0.0584
     28 H7         58.8305   43.1033   39.2017 H           1 BGC       0.0938
     29 H8         62.3305   42.2259   39.4044 H           1 BGC       0.2101
     30 H9         62.3055   42.1450   41.6495 H           1 BGC       0.2100
     31 H10        60.7190   44.1569   43.7972 H           1 BGC       0.2100
     32 H11        58.5553   46.0603   43.6536 H           1 BGC       0.2095
     33 H12        62.1670   46.1889   35.9519 H           1 BGC       0.0586
     34 H13        60.6873   46.5038   36.8811 H           1 BGC       0.0586
     35 H14        59.5427   44.8751   35.1172 H           1 BGC       0.0702
     36 H15        61.5239   43.7497   37.1766 H           1 BGC       0.0654
     37 H16        59.0464   42.4360   35.8813 H           1 BGC       0.0674
     38 H17        60.6295   41.0187   34.6766 H           1 BGC       0.0850
     39 H18        62.0091   41.7690   35.4874 H           1 BGC       0.0850
     40 H19        59.6804   46.9884   34.8504 H           1 BGC       0.2095
     41 H20        60.1863   40.5614   36.8940 H           1 BGC       0.2101
     42 H21        60.1242   43.0519   33.6079 H           1 BGC       0.2348
     43 H22        61.7203   42.6693   33.3656 H           1 BGC       0.2348
@<TRIPOS>BOND
     1     1     2   1
     2     6     1   1
     3     1     7   1
     4     2     3   1
     5     2     8   1
     6     4     3   1
     7     3     9   1
     8     4     5   1
     9    10     4   1
    10     5    11   1
    11     6    10   1
    12    19     6   1
    13    13    12   1
    14    12    17   1
    15    14    13   1
    16    13    18   1
    17    14    15   1
    18    14    19   1
    19    15    16   1
    20    15    20   1
    21    16    21   1
    22    18    21   1
    23     1    22   1
    24     2    23   1
    25     3    24   1
    26     4    25   1
    27     5    26   1
    28     5    27   1
    29     6    28   1
    30     7    29   1
    31     8    30   1
    32     9    31   1
    33    11    32   1
    34    12    33   1
    35    12    34   1
    36    13    35   1
    37    14    36   1
    38    15    37   1
    39    16    38   1
    40    16    39   1
    41    17    40   1
    42    20    41   1
    43    21    42   1
    44    21    43   1
@<TRIPOS>SUBSTRUCTURE
     1  BGC      1

