@<TRIPOS>MOLECULE
1w3k_ligand_003
    43    44
SMALL
GAST_HUCK
****
This file was generated by PARSER (from files_GN.cpp)

@<TRIPOS>ATOM
      1 C2         60.5387   43.9027   35.0735 C.3         1 BGC       0.1341
      2 C3         60.8953   42.4201   35.3763 C.3         1 BGC       0.1141
      3 C4         62.3030   42.2980   36.0277 C.3         1 BGC       0.1119
      4 C5         62.4802   43.3068   37.2056 C.3         1 BGC       0.1130
      5 C6         63.9455   43.4268   37.6825 C.3         1 BGC       0.0730
      6 C1         60.7051   44.7502   36.3652 C.3         1 BGC       0.1884
      7 O2         59.2025   43.9947   34.5966 O.3         1 BGC      -0.3841
      8 O3         60.8156   41.6291   34.1895 O.3         1 BGC      -0.3864
      9 O4         62.4675   40.9542   36.4993 O.3         1 BGC      -0.3865
     10 O5         62.0687   44.6386   36.8290 O.3         1 BGC      -0.3405
     11 O6         64.5412   42.1509   37.9117 O.3         1 BGC      -0.3924
     12 C6         59.6030   47.6157   39.6226 C.3         1 BGC       0.0782
     13 C5         59.3639   46.8878   38.2702 C.3         1 BGC       0.1538
     14 C4         60.4479   47.1243   37.1547 C.3         1 BGC       0.1259
     15 C3         60.2417   48.5085   36.4589 C.3         1 BGC       0.1245
     16 C2         58.7488   48.7191   36.0931 C.3         1 BGC       0.0256
     17 O6         60.1922   46.7608   40.5928 O.3         1 BGC      -0.3922
     18 O5         58.0500   47.1668   37.7352 O.3         1 BGC      -0.3215
     19 O4         60.3834   46.1310   36.0946 O.3         1 BGC      -0.3398
     20 O3         60.6633   49.6088   37.2671 O.3         1 BGC      -0.3838
     21 N1         57.8929   48.4465   37.2630 N.4         1 BGC       0.3939
     22 H1         61.2117   44.2942   34.2980 H           1 BGC       0.0671
     23 H2         60.1539   42.0238   36.0743 H           1 BGC       0.0648
     24 H3         63.0616   42.4943   35.2718 H           1 BGC       0.0647
     25 H4         61.8762   42.9741   38.0555 H           1 BGC       0.0647
     26 H5         63.9728   43.9826   38.6224 H           1 BGC       0.0584
     27 H6         64.5434   43.9679   36.9487 H           1 BGC       0.0584
     28 H7         60.0162   44.3618   37.1174 H           1 BGC       0.0938
     29 H8         59.1774   43.4535   33.7771 H           1 BGC       0.2101
     30 H9         61.5933   41.8659   33.6376 H           1 BGC       0.2100
     31 H10        62.4492   40.3896   35.7020 H           1 BGC       0.2100
     32 H11        65.3676   42.3386   38.3970 H           1 BGC       0.2095
     33 H12        58.6459   47.9555   40.0282 H           1 BGC       0.0586
     34 H13        60.2476   48.4951   39.5010 H           1 BGC       0.0586
     35 H14        59.3357   45.8246   38.5192 H           1 BGC       0.0702
     36 H15        61.4468   47.1046   37.5977 H           1 BGC       0.0654
     37 H16        60.8367   48.5467   35.5429 H           1 BGC       0.0674
     38 H17        58.4679   48.0462   35.2794 H           1 BGC       0.0850
     39 H18        58.5759   49.7426   35.7646 H           1 BGC       0.0850
     40 H19        61.1385   46.6710   40.3524 H           1 BGC       0.2095
     41 H20        61.6394   49.6971   37.1653 H           1 BGC       0.2101
     42 H21        56.9166   48.5681   36.9871 H           1 BGC       0.2348
     43 H22        58.1115   49.1076   38.0087 H           1 BGC       0.2348
@<TRIPOS>BOND
     1     1     2   1
     2     6     1   1
     3     1     7   1
     4     2     3   1
     5     2     8   1
     6     4     3   1
     7     3     9   1
     8     4     5   1
     9    10     4   1
    10     5    11   1
    11     6    10   1
    12    19     6   1
    13    13    12   1
    14    12    17   1
    15    14    13   1
    16    13    18   1
    17    14    15   1
    18    14    19   1
    19    15    16   1
    20    15    20   1
    21    16    21   1
    22    18    21   1
    23     1    22   1
    24     2    23   1
    25     3    24   1
    26     4    25   1
    27     5    26   1
    28     5    27   1
    29     6    28   1
    30     7    29   1
    31     8    30   1
    32     9    31   1
    33    11    32   1
    34    12    33   1
    35    12    34   1
    36    13    35   1
    37    14    36   1
    38    15    37   1
    39    16    38   1
    40    16    39   1
    41    17    40   1
    42    20    41   1
    43    21    42   1
    44    21    43   1
@<TRIPOS>SUBSTRUCTURE
     1  BGC      1

