@<TRIPOS>MOLECULE
1w3k_ligand_034
    43    44
SMALL
GAST_HUCK
****
This file was generated by PARSER (from files_GN.cpp)

@<TRIPOS>ATOM
      1 C2         57.4809   43.8219   39.9638 C.3         1 BGC       0.1341
      2 C3         56.7892   45.0903   40.5204 C.3         1 BGC       0.1141
      3 C4         57.8298   46.0970   41.0929 C.3         1 BGC       0.1119
      4 C5         58.9801   46.3487   40.0643 C.3         1 BGC       0.1130
      5 C6         60.1242   47.2204   40.6442 C.3         1 BGC       0.0730
      6 C1         58.6293   44.1905   38.9861 C.3         1 BGC       0.1884
      7 O2         56.5262   42.9841   39.2981 O.3         1 BGC      -0.3841
      8 O3         55.8539   44.7141   41.5347 O.3         1 BGC      -0.3864
      9 O4         57.1477   47.3084   41.4259 O.3         1 BGC      -0.3865
     10 O5         59.5624   45.1024   39.6093 O.3         1 BGC      -0.3405
     11 O6         60.6821   48.0097   39.5983 O.3         1 BGC      -0.3924
     12 C6         61.9743   40.8867   38.0919 C.3         1 BGC       0.0782
     13 C5         61.6433   42.4001   38.2567 C.3         1 BGC       0.1538
     14 C4         60.2859   42.8252   37.5893 C.3         1 BGC       0.1259
     15 C3         60.4569   44.0350   36.5997 C.3         1 BGC       0.1245
     16 C2         61.4514   45.0972   37.1456 C.3         1 BGC       0.0256
     17 O6         62.6755   40.6070   36.8830 O.3         1 BGC      -0.3922
     18 O5         62.7566   43.1590   37.7459 O.3         1 BGC      -0.3215
     19 O4         59.2369   42.9445   38.5899 O.3         1 BGC      -0.3398
     20 O3         60.9365   43.5334   35.3462 O.3         1 BGC      -0.3838
     21 N1         62.5632   44.5120   37.9404 N.4         1 BGC       0.3939
     22 H1         57.9006   43.2541   40.8000 H           1 BGC       0.0671
     23 H2         56.2307   45.5779   39.7172 H           1 BGC       0.0648
     24 H3         58.2527   45.6747   42.0124 H           1 BGC       0.0647
     25 H4         58.5560   46.8759   39.1993 H           1 BGC       0.0647
     26 H5         60.9012   46.5808   41.0638 H           1 BGC       0.0584
     27 H6         59.7674   47.8917   41.4216 H           1 BGC       0.0584
     28 H7         58.2045   44.6587   38.0931 H           1 BGC       0.0938
     29 H8         55.9704   42.6109   40.0136 H           1 BGC       0.2101
     30 H9         55.3049   45.5095   41.6956 H           1 BGC       0.2100
     31 H10        57.4706   47.5549   42.3150 H           1 BGC       0.2100
     32 H11        61.6325   47.7724   39.5601 H           1 BGC       0.2095
     33 H12        61.0568   40.2973   38.1150 H           1 BGC       0.0586
     34 H13        62.6009   40.5702   38.9237 H           1 BGC       0.0586
     35 H14        61.5873   42.5816   39.3323 H           1 BGC       0.0702
     36 H15        59.9189   42.0027   36.9716 H           1 BGC       0.0654
     37 H16        59.4917   44.5017   36.4209 H           1 BGC       0.0674
     38 H17        60.8996   45.7824   37.8151 H           1 BGC       0.0850
     39 H18        61.8857   45.6794   36.3025 H           1 BGC       0.0850
     40 H19        62.0780   40.0394   36.3553 H           1 BGC       0.2095
     41 H20        60.8853   44.2907   34.7274 H           1 BGC       0.2101
     42 H21        62.3710   44.6730   38.9318 H           1 BGC       0.2348
     43 H22        63.4367   44.9931   37.6996 H           1 BGC       0.2348
@<TRIPOS>BOND
     1     1     2   1
     2     6     1   1
     3     1     7   1
     4     2     3   1
     5     2     8   1
     6     4     3   1
     7     3     9   1
     8     4     5   1
     9    10     4   1
    10     5    11   1
    11     6    10   1
    12    19     6   1
    13    13    12   1
    14    12    17   1
    15    14    13   1
    16    13    18   1
    17    14    15   1
    18    14    19   1
    19    15    16   1
    20    15    20   1
    21    16    21   1
    22    18    21   1
    23     1    22   1
    24     2    23   1
    25     3    24   1
    26     4    25   1
    27     5    26   1
    28     5    27   1
    29     6    28   1
    30     7    29   1
    31     8    30   1
    32     9    31   1
    33    11    32   1
    34    12    33   1
    35    12    34   1
    36    13    35   1
    37    14    36   1
    38    15    37   1
    39    16    38   1
    40    16    39   1
    41    17    40   1
    42    20    41   1
    43    21    42   1
    44    21    43   1
@<TRIPOS>SUBSTRUCTURE
     1  BGC      1

