@<TRIPOS>MOLECULE
1w3k_ligand_033
    43    44
SMALL
GAST_HUCK
****
This file was generated by PARSER (from files_GN.cpp)

@<TRIPOS>ATOM
      1 C2         60.0368   44.0875   38.2929 C.3         1 BGC       0.1341
      2 C3         61.1631   43.0490   38.0062 C.3         1 BGC       0.1141
      3 C4         60.9062   42.2737   36.6848 C.3         1 BGC       0.1119
      4 C5         60.6754   43.2942   35.5254 C.3         1 BGC       0.1130
      5 C6         60.3840   42.6086   34.1714 C.3         1 BGC       0.0730
      6 C1         59.7794   44.9879   37.0370 C.3         1 BGC       0.1884
      7 O2         60.4164   44.8707   39.4289 O.3         1 BGC      -0.3841
      8 O3         61.2682   42.1164   39.0931 O.3         1 BGC      -0.3864
      9 O4         62.0367   41.4291   36.4287 O.3         1 BGC      -0.3865
     10 O5         59.5690   44.1690   35.8635 O.3         1 BGC      -0.3405
     11 O6         60.6780   43.5107   33.1120 O.3         1 BGC      -0.3924
     12 C6         56.4092   48.4339   38.7748 C.3         1 BGC       0.0782
     13 C5         57.0750   47.5909   37.6519 C.3         1 BGC       0.1538
     14 C4         58.4239   46.9019   38.0299 C.3         1 BGC       0.1259
     15 C3         59.6032   47.9297   37.9747 C.3         1 BGC       0.1245
     16 C2         59.5610   48.7227   36.6442 C.3         1 BGC       0.0256
     17 O6         55.8816   47.6098   39.8224 O.3         1 BGC      -0.3922
     18 O5         57.2200   48.3716   36.4429 O.3         1 BGC      -0.3215
     19 O4         58.5817   45.7967   37.1034 O.3         1 BGC      -0.3398
     20 O3         59.5485   48.8338   39.0810 O.3         1 BGC      -0.3838
     21 N1         58.2184   49.3169   36.4791 N.4         1 BGC       0.3939
     22 H1         59.1147   43.5526   38.5420 H           1 BGC       0.0671
     23 H2         62.1195   43.5836   37.9237 H           1 BGC       0.0648
     24 H3         60.0138   41.6499   36.8102 H           1 BGC       0.0647
     25 H4         61.5882   43.8881   35.3922 H           1 BGC       0.0647
     26 H5         59.3368   42.3067   34.1074 H           1 BGC       0.0584
     27 H6         61.0180   41.7269   34.0570 H           1 BGC       0.0584
     28 H7         60.6468   45.6339   36.8682 H           1 BGC       0.0938
     29 H8         61.2348   45.3432   39.1565 H           1 BGC       0.2101
     30 H9         61.7334   42.6093   39.8038 H           1 BGC       0.2100
     31 H10        61.6610   40.5945   36.0746 H           1 BGC       0.2100
     32 H11        61.2681   42.9993   32.5086 H           1 BGC       0.2095
     33 H12        55.5807   49.0131   38.3469 H           1 BGC       0.0586
     34 H13        57.1120   49.1390   39.2135 H           1 BGC       0.0586
     35 H14        56.3546   46.8057   37.4070 H           1 BGC       0.0702
     36 H15        58.3408   46.4958   39.0381 H           1 BGC       0.0654
     37 H16        60.5658   47.4093   38.0488 H           1 BGC       0.0674
     38 H17        59.7707   48.0584   35.7977 H           1 BGC       0.0850
     39 H18        60.3141   49.5130   36.6546 H           1 BGC       0.0850
     40 H19        55.1552   47.0988   39.4022 H           1 BGC       0.2095
     41 H20        59.6840   48.2790   39.8687 H           1 BGC       0.2101
     42 H21        58.2023   49.8409   35.6005 H           1 BGC       0.2348
     43 H22        58.0468   49.9728   37.2489 H           1 BGC       0.2348
@<TRIPOS>BOND
     1     1     2   1
     2     6     1   1
     3     1     7   1
     4     2     3   1
     5     2     8   1
     6     4     3   1
     7     3     9   1
     8     4     5   1
     9    10     4   1
    10     5    11   1
    11     6    10   1
    12    19     6   1
    13    13    12   1
    14    12    17   1
    15    14    13   1
    16    13    18   1
    17    14    15   1
    18    14    19   1
    19    15    16   1
    20    15    20   1
    21    16    21   1
    22    18    21   1
    23     1    22   1
    24     2    23   1
    25     3    24   1
    26     4    25   1
    27     5    26   1
    28     5    27   1
    29     6    28   1
    30     7    29   1
    31     8    30   1
    32     9    31   1
    33    11    32   1
    34    12    33   1
    35    12    34   1
    36    13    35   1
    37    14    36   1
    38    15    37   1
    39    16    38   1
    40    16    39   1
    41    17    40   1
    42    20    41   1
    43    21    42   1
    44    21    43   1
@<TRIPOS>SUBSTRUCTURE
     1  BGC      1

