@<TRIPOS>MOLECULE
1w3k_ligand_029
    43    44
SMALL
GAST_HUCK
****
This file was generated by PARSER (from files_GN.cpp)

@<TRIPOS>ATOM
      1 C2         60.6930   44.2740   40.1878 C.3         1 BGC       0.1341
      2 C3         60.1838   45.1566   41.3603 C.3         1 BGC       0.1141
      3 C4         59.5736   46.4739   40.8231 C.3         1 BGC       0.1119
      4 C5         58.4863   46.1637   39.7432 C.3         1 BGC       0.1130
      5 C6         57.9175   47.4339   39.0689 C.3         1 BGC       0.0730
      6 C1         59.5657   44.0529   39.1361 C.3         1 BGC       0.1884
      7 O2         61.1571   43.0081   40.6564 O.3         1 BGC      -0.3841
      8 O3         61.2476   45.4446   42.2635 O.3         1 BGC      -0.3864
      9 O4         59.0198   47.2051   41.9216 O.3         1 BGC      -0.3865
     10 O5         59.0133   45.3134   38.6932 O.3         1 BGC      -0.3405
     11 O6         58.9609   48.2573   38.5456 O.3         1 BGC      -0.3924
     12 C6         60.8079   44.1400   34.4212 C.3         1 BGC       0.0782
     13 C5         60.4004   43.2784   35.6440 C.3         1 BGC       0.1538
     14 C4         60.9263   43.7543   37.0403 C.3         1 BGC       0.1259
     15 C3         62.3622   43.2140   37.3340 C.3         1 BGC       0.1245
     16 C2         62.4875   41.7223   36.9482 C.3         1 BGC       0.0256
     17 O6         62.2051   44.2963   34.2263 O.3         1 BGC      -0.3922
     18 O5         60.6624   41.8733   35.4330 O.3         1 BGC      -0.3215
     19 O4         59.9979   43.2314   38.0267 O.3         1 BGC      -0.3398
     20 O3         63.3446   43.9862   36.6374 O.3         1 BGC      -0.3838
     21 N1         61.9726   41.4986   35.5822 N.4         1 BGC       0.3939
     22 H1         61.5206   44.7973   39.7027 H           1 BGC       0.0671
     23 H2         59.4204   44.6078   41.9166 H           1 BGC       0.0648
     24 H3         60.3693   47.0757   40.3743 H           1 BGC       0.0647
     25 H4         57.6499   45.6450   40.2224 H           1 BGC       0.0647
     26 H5         57.3327   48.0148   39.7877 H           1 BGC       0.0584
     27 H6         57.2579   47.1469   38.2469 H           1 BGC       0.0584
     28 H7         58.7620   43.4832   39.6117 H           1 BGC       0.0938
     29 H8         62.1322   43.0344   40.5463 H           1 BGC       0.2101
     30 H9         61.5228   44.5806   42.6338 H           1 BGC       0.2100
     31 H10        58.8279   48.0994   41.5752 H           1 BGC       0.2100
     32 H11        58.4946   48.9959   38.0954 H           1 BGC       0.2095
     33 H12        60.3767   45.1406   34.5395 H           1 BGC       0.0586
     34 H13        60.3845   43.7003   33.5159 H           1 BGC       0.0586
     35 H14        59.3085   43.3466   35.6747 H           1 BGC       0.0702
     36 H15        60.9488   44.8497   37.0563 H           1 BGC       0.0654
     37 H16        62.5900   43.3138   38.3954 H           1 BGC       0.0674
     38 H17        61.9162   41.1054   37.6511 H           1 BGC       0.0850
     39 H18        63.5348   41.4113   36.9898 H           1 BGC       0.0850
     40 H19        62.5209   43.4690   33.8129 H           1 BGC       0.2095
     41 H20        64.1816   43.8331   37.1277 H           1 BGC       0.2101
     42 H21        62.0472   40.5045   35.3865 H           1 BGC       0.2348
     43 H22        62.5514   41.9940   34.9094 H           1 BGC       0.2348
@<TRIPOS>BOND
     1     1     2   1
     2     6     1   1
     3     1     7   1
     4     2     3   1
     5     2     8   1
     6     4     3   1
     7     3     9   1
     8     4     5   1
     9    10     4   1
    10     5    11   1
    11     6    10   1
    12    19     6   1
    13    13    12   1
    14    12    17   1
    15    14    13   1
    16    13    18   1
    17    14    15   1
    18    14    19   1
    19    15    16   1
    20    15    20   1
    21    16    21   1
    22    18    21   1
    23     1    22   1
    24     2    23   1
    25     3    24   1
    26     4    25   1
    27     5    26   1
    28     5    27   1
    29     6    28   1
    30     7    29   1
    31     8    30   1
    32     9    31   1
    33    11    32   1
    34    12    33   1
    35    12    34   1
    36    13    35   1
    37    14    36   1
    38    15    37   1
    39    16    38   1
    40    16    39   1
    41    17    40   1
    42    20    41   1
    43    21    42   1
    44    21    43   1
@<TRIPOS>SUBSTRUCTURE
     1  BGC      1

