@<TRIPOS>MOLECULE
1w3k_ligand_020
    43    44
SMALL
GAST_HUCK
****
This file was generated by PARSER (from files_GN.cpp)

@<TRIPOS>ATOM
      1 C2         59.7083   46.4319   38.6017 C.3         1 BGC       0.1341
      2 C3         59.5821   47.8822   38.0672 C.3         1 BGC       0.1141
      3 C4         60.9851   48.4941   37.7921 C.3         1 BGC       0.1119
      4 C5         61.8508   47.5335   36.9152 C.3         1 BGC       0.1130
      5 C6         63.3113   48.0289   36.7541 C.3         1 BGC       0.0730
      6 C1         60.5757   45.5955   37.6304 C.3         1 BGC       0.1884
      7 O2         58.4200   45.8288   38.7335 O.3         1 BGC      -0.3841
      8 O3         58.8661   48.6714   39.0161 O.3         1 BGC      -0.3864
      9 O4         60.8246   49.7660   37.1607 O.3         1 BGC      -0.3865
     10 O5         61.8718   46.2106   37.4949 O.3         1 BGC      -0.3405
     11 O6         64.1844   46.9705   36.3609 O.3         1 BGC      -0.3924
     12 C6         60.6988   41.8163   35.2160 C.3         1 BGC       0.0782
     13 C5         60.1983   42.5638   36.4804 C.3         1 BGC       0.1538
     14 C4         61.3214   43.2726   37.3080 C.3         1 BGC       0.1259
     15 C3         62.0707   42.2744   38.2402 C.3         1 BGC       0.1245
     16 C2         61.0769   41.3609   38.9926 C.3         1 BGC       0.0256
     17 O6         61.0445   42.7603   34.2009 O.3         1 BGC      -0.3922
     18 O5         59.4057   41.7207   37.3454 O.3         1 BGC      -0.3215
     19 O4         60.7368   44.2733   38.1734 O.3         1 BGC      -0.3398
     20 O3         62.9996   41.4697   37.5120 O.3         1 BGC      -0.3838
     21 N1         60.1139   40.7752   38.0437 N.4         1 BGC       0.3939
     22 H1         60.1845   46.4415   39.5879 H           1 BGC       0.0671
     23 H2         59.0093   47.8687   37.1381 H           1 BGC       0.0648
     24 H3         61.4878   48.6539   38.7524 H           1 BGC       0.0647
     25 H4         61.4148   47.4732   35.9100 H           1 BGC       0.0647
     26 H5         63.6862   48.4531   37.6866 H           1 BGC       0.0584
     27 H6         63.3460   48.7910   35.9772 H           1 BGC       0.0584
     28 H7         60.0788   45.5447   36.6555 H           1 BGC       0.0938
     29 H8         57.9679   46.3356   39.4407 H           1 BGC       0.2101
     30 H9         58.5766   49.4722   38.5273 H           1 BGC       0.2100
     31 H10        61.7289   50.0967   37.0140 H           1 BGC       0.2100
     32 H11        65.0023   47.4211   36.0414 H           1 BGC       0.2095
     33 H12        59.9041   41.1713   34.8263 H           1 BGC       0.0586
     34 H13        61.5628   41.1936   35.4399 H           1 BGC       0.0586
     35 H14        59.4973   43.3198   36.1184 H           1 BGC       0.0702
     36 H15        62.0571   43.7270   36.6332 H           1 BGC       0.0654
     37 H16        62.6506   42.8428   38.9701 H           1 BGC       0.0674
     38 H17        60.5308   41.9401   39.7401 H           1 BGC       0.0850
     39 H18        61.6100   40.5598   39.5025 H           1 BGC       0.0850
     40 H19        61.7430   42.3277   33.6481 H           1 BGC       0.2095
     41 H20        63.6689   42.0971   37.1518 H           1 BGC       0.2101
     42 H21        59.4520   40.2038   38.5688 H           1 BGC       0.2348
     43 H22        60.5986   40.1758   37.3765 H           1 BGC       0.2348
@<TRIPOS>BOND
     1     1     2   1
     2     6     1   1
     3     1     7   1
     4     2     3   1
     5     2     8   1
     6     4     3   1
     7     3     9   1
     8     4     5   1
     9    10     4   1
    10     5    11   1
    11     6    10   1
    12    19     6   1
    13    13    12   1
    14    12    17   1
    15    14    13   1
    16    13    18   1
    17    14    15   1
    18    14    19   1
    19    15    16   1
    20    15    20   1
    21    16    21   1
    22    18    21   1
    23     1    22   1
    24     2    23   1
    25     3    24   1
    26     4    25   1
    27     5    26   1
    28     5    27   1
    29     6    28   1
    30     7    29   1
    31     8    30   1
    32     9    31   1
    33    11    32   1
    34    12    33   1
    35    12    34   1
    36    13    35   1
    37    14    36   1
    38    15    37   1
    39    16    38   1
    40    16    39   1
    41    17    40   1
    42    20    41   1
    43    21    42   1
    44    21    43   1
@<TRIPOS>SUBSTRUCTURE
     1  BGC      1

