@<TRIPOS>MOLECULE
1w3k_ligand_018
    43    44
SMALL
GAST_HUCK
****
This file was generated by PARSER (from files_GN.cpp)

@<TRIPOS>ATOM
      1 C2         58.7726   41.6791   39.8222 C.3         1 BGC       0.1341
      2 C3         59.0812   41.2716   41.2912 C.3         1 BGC       0.1141
      3 C4         60.2926   40.3041   41.3579 C.3         1 BGC       0.1119
      4 C5         61.5123   40.8638   40.5591 C.3         1 BGC       0.1130
      5 C6         62.6599   39.8177   40.4312 C.3         1 BGC       0.0730
      6 C1         60.0534   42.2722   39.1888 C.3         1 BGC       0.1884
      7 O2         57.7272   42.6446   39.7800 O.3         1 BGC      -0.3841
      8 O3         57.9441   40.6717   41.9140 O.3         1 BGC      -0.3864
      9 O4         60.6474   40.0567   42.7122 O.3         1 BGC      -0.3865
     10 O5         61.0858   41.2569   39.2257 O.3         1 BGC      -0.3405
     11 O6         63.4164   39.9652   39.2312 O.3         1 BGC      -0.3924
     12 C6         61.2191   45.5551   35.7549 C.3         1 BGC       0.0782
     13 C5         60.2132   44.4847   36.2651 C.3         1 BGC       0.1538
     14 C4         60.8381   43.3071   37.0859 C.3         1 BGC       0.1259
     15 C3         61.4903   42.2384   36.1596 C.3         1 BGC       0.1245
     16 C2         60.5464   41.8940   34.9822 C.3         1 BGC       0.0256
     17 O6         61.7885   46.2976   36.8309 O.3         1 BGC      -0.3922
     18 O5         59.4154   43.9762   35.1781 O.3         1 BGC      -0.3215
     19 O4         59.7733   42.6688   37.8346 O.3         1 BGC      -0.3398
     20 O3         62.7322   42.7381   35.6701 O.3         1 BGC      -0.3838
     21 N1         60.0932   43.1372   34.3230 N.4         1 BGC       0.3939
     22 H1         58.4616   40.7940   39.2527 H           1 BGC       0.0671
     23 H2         59.3190   42.1711   41.8649 H           1 BGC       0.0648
     24 H3         59.9908   39.3600   40.9122 H           1 BGC       0.0647
     25 H4         61.9191   41.7417   41.0790 H           1 BGC       0.0647
     26 H5         62.2660   38.7969   40.4335 H           1 BGC       0.0584
     27 H6         63.3369   39.9040   41.2804 H           1 BGC       0.0584
     28 H7         60.3817   43.1577   39.7512 H           1 BGC       0.0938
     29 H8         56.8943   42.1253   39.8782 H           1 BGC       0.2101
     30 H9         57.9735   39.7176   41.6494 H           1 BGC       0.2100
     31 H10        60.9205   40.9259   43.0676 H           1 BGC       0.2100
     32 H11        63.9496   40.7721   39.3641 H           1 BGC       0.2095
     33 H12        60.6990   46.2535   35.0914 H           1 BGC       0.0586
     34 H13        62.0341   45.0960   35.1915 H           1 BGC       0.0586
     35 H14        59.5219   45.0113   36.9206 H           1 BGC       0.0702
     36 H15        61.5996   43.7179   37.7626 H           1 BGC       0.0654
     37 H16        61.7014   41.3287   36.7258 H           1 BGC       0.0674
     38 H17        59.6676   41.3417   35.3445 H           1 BGC       0.0850
     39 H18        61.0664   41.2662   34.2558 H           1 BGC       0.0850
     40 H19        61.0275   46.7606   37.2424 H           1 BGC       0.2095
     41 H20        62.8986   42.2396   34.8408 H           1 BGC       0.2101
     42 H21        59.4663   42.8844   33.5531 H           1 BGC       0.2348
     43 H22        60.9032   43.6232   33.9333 H           1 BGC       0.2348
@<TRIPOS>BOND
     1     1     2   1
     2     6     1   1
     3     1     7   1
     4     2     3   1
     5     2     8   1
     6     4     3   1
     7     3     9   1
     8     4     5   1
     9    10     4   1
    10     5    11   1
    11     6    10   1
    12    19     6   1
    13    13    12   1
    14    12    17   1
    15    14    13   1
    16    13    18   1
    17    14    15   1
    18    14    19   1
    19    15    16   1
    20    15    20   1
    21    16    21   1
    22    18    21   1
    23     1    22   1
    24     2    23   1
    25     3    24   1
    26     4    25   1
    27     5    26   1
    28     5    27   1
    29     6    28   1
    30     7    29   1
    31     8    30   1
    32     9    31   1
    33    11    32   1
    34    12    33   1
    35    12    34   1
    36    13    35   1
    37    14    36   1
    38    15    37   1
    39    16    38   1
    40    16    39   1
    41    17    40   1
    42    20    41   1
    43    21    42   1
    44    21    43   1
@<TRIPOS>SUBSTRUCTURE
     1  BGC      1

