@<TRIPOS>MOLECULE
1w3k_ligand_030
    43    44
SMALL
GAST_HUCK
****
This file was generated by PARSER (from files_GN.cpp)

@<TRIPOS>ATOM
      1 C2         60.4119   42.0832   35.7421 C.3         1 BGC       0.1341
      2 C3         60.4244   43.3982   34.9148 C.3         1 BGC       0.1141
      3 C4         61.1634   44.5195   35.6920 C.3         1 BGC       0.1119
      4 C5         62.6081   44.0566   36.0349 C.3         1 BGC       0.1130
      5 C6         63.4098   45.0357   36.9504 C.3         1 BGC       0.0730
      6 C1         61.8534   41.6748   36.1483 C.3         1 BGC       0.1884
      7 O2         59.7829   41.0473   34.9922 O.3         1 BGC      -0.3841
      8 O3         59.0915   43.8168   34.6179 O.3         1 BGC      -0.3864
      9 O4         61.1967   45.7105   34.9107 O.3         1 BGC      -0.3865
     10 O5         62.5615   42.7900   36.7303 O.3         1 BGC      -0.3405
     11 O6         62.7995   46.3197   37.1106 O.3         1 BGC      -0.3924
     12 C6         63.8459   37.4626   37.8568 C.3         1 BGC       0.0782
     13 C5         62.6378   38.4439   37.8187 C.3         1 BGC       0.1538
     14 C4         62.9768   39.9500   37.5617 C.3         1 BGC       0.1259
     15 C3         63.4836   40.6346   38.8699 C.3         1 BGC       0.1245
     16 C2         62.6008   40.2688   40.0876 C.3         1 BGC       0.0256
     17 O6         64.3552   37.2000   36.5514 O.3         1 BGC      -0.3922
     18 O5         61.8310   38.3202   39.0070 O.3         1 BGC      -0.3215
     19 O4         61.7647   40.6273   37.1426 O.3         1 BGC      -0.3398
     20 O3         64.8399   40.2974   39.1530 O.3         1 BGC      -0.3838
     21 N1         62.4167   38.8091   40.1437 N.4         1 BGC       0.3939
     22 H1         59.8247   42.2481   36.6484 H           1 BGC       0.0671
     23 H2         60.9364   43.2249   33.9585 H           1 BGC       0.0648
     24 H3         60.6218   44.7352   36.6122 H           1 BGC       0.0647
     25 H4         63.1667   43.9145   35.0996 H           1 BGC       0.0647
     26 H5         64.4039   45.1968   36.5371 H           1 BGC       0.0584
     27 H6         63.5430   44.6104   37.9450 H           1 BGC       0.0584
     28 H7         62.3892   41.3206   35.2640 H           1 BGC       0.0938
     29 H8         58.8213   41.1873   35.1268 H           1 BGC       0.2101
     30 H9         58.7994   43.2546   33.8678 H           1 BGC       0.2100
     31 H10        60.2529   45.9837   34.8055 H           1 BGC       0.2100
     32 H11        62.8834   46.5308   38.0743 H           1 BGC       0.2095
     33 H12        63.5377   36.5118   38.2943 H           1 BGC       0.0586
     34 H13        64.6567   37.8596   38.4657 H           1 BGC       0.0586
     35 H14        61.9992   38.1016   37.0050 H           1 BGC       0.0702
     36 H15        63.7490   40.0110   36.7846 H           1 BGC       0.0654
     37 H16        63.4556   41.7174   38.7513 H           1 BGC       0.0674
     38 H17        61.6272   40.7532   40.0041 H           1 BGC       0.0850
     39 H18        63.0710   40.6023   41.0118 H           1 BGC       0.0850
     40 H19        63.7488   36.5265   36.1761 H           1 BGC       0.2095
     41 H20        65.3769   40.9446   38.6405 H           1 BGC       0.2101
     42 H21        61.8141   38.5852   40.9376 H           1 BGC       0.2348
     43 H22        63.3236   38.3563   40.2832 H           1 BGC       0.2348
@<TRIPOS>BOND
     1     1     2   1
     2     6     1   1
     3     1     7   1
     4     2     3   1
     5     2     8   1
     6     4     3   1
     7     3     9   1
     8     4     5   1
     9    10     4   1
    10     5    11   1
    11     6    10   1
    12    19     6   1
    13    13    12   1
    14    12    17   1
    15    14    13   1
    16    13    18   1
    17    14    15   1
    18    14    19   1
    19    15    16   1
    20    15    20   1
    21    16    21   1
    22    18    21   1
    23     1    22   1
    24     2    23   1
    25     3    24   1
    26     4    25   1
    27     5    26   1
    28     5    27   1
    29     6    28   1
    30     7    29   1
    31     8    30   1
    32     9    31   1
    33    11    32   1
    34    12    33   1
    35    12    34   1
    36    13    35   1
    37    14    36   1
    38    15    37   1
    39    16    38   1
    40    16    39   1
    41    17    40   1
    42    20    41   1
    43    21    42   1
    44    21    43   1
@<TRIPOS>SUBSTRUCTURE
     1  BGC      1

