@<TRIPOS>MOLECULE
1w3k_ligand_012
    43    44
SMALL
GAST_HUCK
****
This file was generated by PARSER (from files_GN.cpp)

@<TRIPOS>ATOM
      1 C2         61.0586   43.3559   38.6969 C.3         1 BGC       0.1341
      2 C3         61.9710   42.2390   38.1043 C.3         1 BGC       0.1141
      3 C4         61.6908   42.0188   36.5943 C.3         1 BGC       0.1119
      4 C5         61.7871   43.3650   35.8216 C.3         1 BGC       0.1130
      5 C6         61.3813   43.2655   34.3212 C.3         1 BGC       0.0730
      6 C1         61.1492   44.6536   37.8494 C.3         1 BGC       0.1884
      7 O2         61.4005   43.6271   40.0514 O.3         1 BGC      -0.3841
      8 O3         61.7753   41.0202   38.8310 O.3         1 BGC      -0.3864
      9 O4         62.6471   41.0959   36.0761 O.3         1 BGC      -0.3865
     10 O5         60.9125   44.3329   36.4572 O.3         1 BGC      -0.3405
     11 O6         60.1315   43.9246   34.0651 O.3         1 BGC      -0.3924
     12 C6         60.9655   48.9650   36.6492 C.3         1 BGC       0.0782
     13 C5         60.7431   47.9622   37.8158 C.3         1 BGC       0.1538
     14 C4         59.8256   46.7384   37.4626 C.3         1 BGC       0.1259
     15 C3         58.3120   47.0652   37.6722 C.3         1 BGC       0.1245
     16 C2         58.0773   47.8321   38.9906 C.3         1 BGC       0.0256
     17 O6         61.8880   48.4380   35.6899 O.3         1 BGC      -0.3922
     18 O5         60.2947   48.6396   39.0031 O.3         1 BGC      -0.3215
     19 O4         60.1314   45.5825   38.2846 O.3         1 BGC      -0.3398
     20 O3         57.7948   47.8480   36.5848 O.3         1 BGC      -0.3838
     21 N1         58.9747   48.9973   39.0197 N.4         1 BGC       0.3939
     22 H1         60.0198   43.0023   38.6783 H           1 BGC       0.0671
     23 H2         63.0167   42.5388   38.2272 H           1 BGC       0.0648
     24 H3         60.6858   41.6056   36.4766 H           1 BGC       0.0647
     25 H4         62.8187   43.7318   35.8962 H           1 BGC       0.0647
     26 H5         61.2854   42.2288   34.0059 H           1 BGC       0.0584
     27 H6         62.1396   43.7357   33.6887 H           1 BGC       0.0584
     28 H7         62.1393   45.0945   37.9657 H           1 BGC       0.0938
     29 H8         62.3540   43.3801   40.1388 H           1 BGC       0.2101
     30 H9         62.5107   40.4370   38.5474 H           1 BGC       0.2100
     31 H10        62.1461   40.2759   35.8807 H           1 BGC       0.2100
     32 H11        59.7973   43.5574   33.2088 H           1 BGC       0.2095
     33 H12        61.3849   49.8865   37.0462 H           1 BGC       0.0586
     34 H13        60.0282   49.2094   36.1301 H           1 BGC       0.0586
     35 H14        61.7324   47.5797   38.0712 H           1 BGC       0.0702
     36 H15        59.9447   46.4947   36.4051 H           1 BGC       0.0654
     37 H16        57.7370   46.1342   37.6901 H           1 BGC       0.0674
     38 H17        58.2830   47.1895   39.8427 H           1 BGC       0.0850
     39 H18        57.0413   48.1686   39.0504 H           1 BGC       0.0850
     40 H19        62.4232   49.2117   35.4384 H           1 BGC       0.2095
     41 H20        57.9765   47.3204   35.7716 H           1 BGC       0.2101
     42 H21        58.7988   49.5189   39.8833 H           1 BGC       0.2348
     43 H22        58.7588   49.6025   38.2238 H           1 BGC       0.2348
@<TRIPOS>BOND
     1     1     2   1
     2     6     1   1
     3     1     7   1
     4     2     3   1
     5     2     8   1
     6     4     3   1
     7     3     9   1
     8     4     5   1
     9    10     4   1
    10     5    11   1
    11     6    10   1
    12    19     6   1
    13    13    12   1
    14    12    17   1
    15    14    13   1
    16    13    18   1
    17    14    15   1
    18    14    19   1
    19    15    16   1
    20    15    20   1
    21    16    21   1
    22    18    21   1
    23     1    22   1
    24     2    23   1
    25     3    24   1
    26     4    25   1
    27     5    26   1
    28     5    27   1
    29     6    28   1
    30     7    29   1
    31     8    30   1
    32     9    31   1
    33    11    32   1
    34    12    33   1
    35    12    34   1
    36    13    35   1
    37    14    36   1
    38    15    37   1
    39    16    38   1
    40    16    39   1
    41    17    40   1
    42    20    41   1
    43    21    42   1
    44    21    43   1
@<TRIPOS>SUBSTRUCTURE
     1  BGC      1

