@<TRIPOS>MOLECULE
1w3k_ligand_023
    43    44
SMALL
GAST_HUCK
****
This file was generated by PARSER (from files_GN.cpp)

@<TRIPOS>ATOM
      1 C2         61.1141   41.8408   36.9587 C.3         1 BGC       0.1341
      2 C3         61.4057   42.6234   35.6486 C.3         1 BGC       0.1141
      3 C4         60.5398   43.9124   35.5428 C.3         1 BGC       0.1119
      4 C5         60.6689   44.7657   36.8386 C.3         1 BGC       0.1130
      5 C6         59.7531   46.0189   36.9070 C.3         1 BGC       0.0730
      6 C1         61.1565   42.7758   38.1943 C.3         1 BGC       0.1884
      7 O2         62.0683   40.7925   37.1077 O.3         1 BGC      -0.3841
      8 O3         61.1576   41.7683   34.5322 O.3         1 BGC      -0.3864
      9 O4         60.9490   44.6641   34.4019 O.3         1 BGC      -0.3865
     10 O5         60.3302   43.9415   37.9829 O.3         1 BGC      -0.3405
     11 O6         60.1021   47.0492   35.9867 O.3         1 BGC      -0.3924
     12 C6         61.7649   38.9853   41.2612 C.3         1 BGC       0.0782
     13 C5         60.8133   40.0328   40.6158 C.3         1 BGC       0.1538
     14 C4         61.4699   41.4003   40.2408 C.3         1 BGC       0.1259
     15 C3         61.6526   42.3149   41.4910 C.3         1 BGC       0.1245
     16 C2         60.3520   42.3366   42.3380 C.3         1 BGC       0.0256
     17 O6         62.6978   38.4694   40.3197 O.3         1 BGC      -0.3922
     18 O5         59.6414   40.2517   41.4299 O.3         1 BGC      -0.3215
     19 O4         60.5858   42.0765   39.3258 O.3         1 BGC      -0.3398
     20 O3         62.7538   41.8848   42.2862 O.3         1 BGC      -0.3838
     21 N1         59.8773   40.9582   42.5830 N.4         1 BGC       0.3939
     22 H1         60.1173   41.3923   36.8872 H           1 BGC       0.0671
     23 H2         62.4639   42.8988   35.6454 H           1 BGC       0.0648
     24 H3         59.4865   43.6286   35.4066 H           1 BGC       0.0647
     25 H4         61.7027   45.1123   36.9370 H           1 BGC       0.0647
     26 H5         59.8283   46.4462   37.9107 H           1 BGC       0.0584
     27 H6         58.7089   45.7368   36.7458 H           1 BGC       0.0584
     28 H7         62.1800   43.1123   38.3953 H           1 BGC       0.0938
     29 H8         61.8364   40.1377   36.4210 H           1 BGC       0.2101
     30 H9         61.8550   41.9757   33.8693 H           1 BGC       0.2100
     31 H10        60.6532   44.1395   33.6275 H           1 BGC       0.2100
     32 H11        59.4792   46.9557   35.2367 H           1 BGC       0.2095
     33 H12        61.1788   38.1517   41.6481 H           1 BGC       0.0586
     34 H13        62.3178   39.4145   42.0945 H           1 BGC       0.0586
     35 H14        60.4604   39.5807   39.6866 H           1 BGC       0.0702
     36 H15        62.4469   41.2045   39.7844 H           1 BGC       0.0654
     37 H16        61.8764   43.3317   41.1607 H           1 BGC       0.0674
     38 H17        59.5736   42.8928   41.8095 H           1 BGC       0.0850
     39 H18        60.5366   42.8290   43.2948 H           1 BGC       0.0850
     40 H19        62.1560   37.9828   39.6637 H           1 BGC       0.2095
     41 H20        62.9244   42.6176   42.9149 H           1 BGC       0.2101
     42 H21        59.0003   41.0120   43.1071 H           1 BGC       0.2348
     43 H22        60.5664   40.4610   43.1529 H           1 BGC       0.2348
@<TRIPOS>BOND
     1     1     2   1
     2     6     1   1
     3     1     7   1
     4     2     3   1
     5     2     8   1
     6     4     3   1
     7     3     9   1
     8     4     5   1
     9    10     4   1
    10     5    11   1
    11     6    10   1
    12    19     6   1
    13    13    12   1
    14    12    17   1
    15    14    13   1
    16    13    18   1
    17    14    15   1
    18    14    19   1
    19    15    16   1
    20    15    20   1
    21    16    21   1
    22    18    21   1
    23     1    22   1
    24     2    23   1
    25     3    24   1
    26     4    25   1
    27     5    26   1
    28     5    27   1
    29     6    28   1
    30     7    29   1
    31     8    30   1
    32     9    31   1
    33    11    32   1
    34    12    33   1
    35    12    34   1
    36    13    35   1
    37    14    36   1
    38    15    37   1
    39    16    38   1
    40    16    39   1
    41    17    40   1
    42    20    41   1
    43    21    42   1
    44    21    43   1
@<TRIPOS>SUBSTRUCTURE
     1  BGC      1

