@<TRIPOS>MOLECULE
1w3k_ligand_007
    43    44
SMALL
GAST_HUCK
****
This file was generated by PARSER (from files_GN.cpp)

@<TRIPOS>ATOM
      1 C2         59.8783   43.6451   35.0572 C.3         1 BGC       0.1341
      2 C3         60.5143   42.2224   35.0821 C.3         1 BGC       0.1141
      3 C4         61.9701   42.3023   35.6182 C.3         1 BGC       0.1119
      4 C5         61.9826   42.9803   37.0183 C.3         1 BGC       0.1130
      5 C6         63.4031   43.1772   37.6043 C.3         1 BGC       0.0730
      6 C1         60.0044   44.3557   36.4338 C.3         1 BGC       0.1884
      7 O2         58.5014   43.5904   34.6900 O.3         1 BGC      -0.3841
      8 O3         60.4720   41.6391   33.7771 O.3         1 BGC      -0.3864
      9 O4         62.5953   41.0136   35.6839 O.3         1 BGC      -0.3865
     10 O5         61.3710   44.2999   36.9372 O.3         1 BGC      -0.3405
     11 O6         64.1591   44.1610   36.9094 O.3         1 BGC      -0.3924
     12 C6         57.8207   48.1896   36.9599 C.3         1 BGC       0.0782
     13 C5         59.3150   48.1327   36.5498 C.3         1 BGC       0.1538
     14 C4         60.0400   46.8194   37.0126 C.3         1 BGC       0.1259
     15 C3         61.5672   46.9935   36.7823 C.3         1 BGC       0.1245
     16 C2         62.0840   48.3215   37.3560 C.3         1 BGC       0.0256
     17 O6         57.1235   46.9934   36.6395 O.3         1 BGC      -0.3922
     18 O5         59.9590   49.3206   37.0863 O.3         1 BGC      -0.3215
     19 O4         59.5492   45.7135   36.2213 O.3         1 BGC      -0.3398
     20 O3         62.3413   45.9629   37.3802 O.3         1 BGC      -0.3838
     21 N1         61.2917   49.4126   36.7828 N.4         1 BGC       0.3939
     22 H1         60.4034   44.2369   34.3026 H           1 BGC       0.0671
     23 H2         59.9167   41.5767   35.7419 H           1 BGC       0.0648
     24 H3         62.5615   42.9063   34.9298 H           1 BGC       0.0647
     25 H4         61.4148   42.3581   37.7251 H           1 BGC       0.0647
     26 H5         63.9552   42.2321   37.5891 H           1 BGC       0.0584
     27 H6         63.3135   43.5030   38.6372 H           1 BGC       0.0584
     28 H7         59.3406   43.8791   37.1603 H           1 BGC       0.0938
     29 H8         58.4749   43.1157   33.8359 H           1 BGC       0.2101
     30 H9         61.3291   41.8626   33.3449 H           1 BGC       0.2100
     31 H10        61.8849   40.3889   35.9446 H           1 BGC       0.2100
     32 H11        64.0457   43.9598   35.9566 H           1 BGC       0.2095
     33 H12        57.3278   49.0179   36.4422 H           1 BGC       0.0586
     34 H13        57.7300   48.3616   38.0377 H           1 BGC       0.0586
     35 H14        59.3536   48.1986   35.4551 H           1 BGC       0.0702
     36 H15        59.8396   46.6589   38.0760 H           1 BGC       0.0654
     37 H16        61.7572   46.9666   35.7057 H           1 BGC       0.0674
     38 H17        63.1361   48.4368   37.0942 H           1 BGC       0.0850
     39 H18        61.9875   48.3372   38.4447 H           1 BGC       0.0850
     40 H19        56.9272   47.0629   35.6792 H           1 BGC       0.2095
     41 H20        62.6544   46.3384   38.2439 H           1 BGC       0.2101
     42 H21        61.4147   49.4160   35.7690 H           1 BGC       0.2348
     43 H22        61.6849   50.2703   37.1654 H           1 BGC       0.2348
@<TRIPOS>BOND
     1     1     2   1
     2     6     1   1
     3     1     7   1
     4     2     3   1
     5     2     8   1
     6     4     3   1
     7     3     9   1
     8     4     5   1
     9    10     4   1
    10     5    11   1
    11     6    10   1
    12    19     6   1
    13    13    12   1
    14    12    17   1
    15    14    13   1
    16    13    18   1
    17    14    15   1
    18    14    19   1
    19    15    16   1
    20    15    20   1
    21    16    21   1
    22    18    21   1
    23     1    22   1
    24     2    23   1
    25     3    24   1
    26     4    25   1
    27     5    26   1
    28     5    27   1
    29     6    28   1
    30     7    29   1
    31     8    30   1
    32     9    31   1
    33    11    32   1
    34    12    33   1
    35    12    34   1
    36    13    35   1
    37    14    36   1
    38    15    37   1
    39    16    38   1
    40    16    39   1
    41    17    40   1
    42    20    41   1
    43    21    42   1
    44    21    43   1
@<TRIPOS>SUBSTRUCTURE
     1  BGC      1

