@<TRIPOS>MOLECULE
1w3k_ligand_011
    43    44
SMALL
GAST_HUCK
****
This file was generated by PARSER (from files_GN.cpp)

@<TRIPOS>ATOM
      1 C2         59.4963   45.9687   38.6416 C.3         1 BGC       0.1341
      2 C3         58.3265   46.8097   39.2233 C.3         1 BGC       0.1141
      3 C4         58.2525   48.2039   38.5466 C.3         1 BGC       0.1119
      4 C5         58.2198   48.0406   37.0003 C.3         1 BGC       0.1130
      5 C6         58.2483   49.3965   36.2571 C.3         1 BGC       0.0730
      6 C1         59.4322   45.9221   37.0824 C.3         1 BGC       0.1884
      7 O2         59.4160   44.6640   39.2159 O.3         1 BGC      -0.3841
      8 O3         58.4897   46.9378   40.6381 O.3         1 BGC      -0.3864
      9 O4         57.0944   48.9063   38.9940 O.3         1 BGC      -0.3865
     10 O5         59.3515   47.2619   36.5527 O.3         1 BGC      -0.3405
     11 O6         59.4622   50.1087   36.4924 O.3         1 BGC      -0.3924
     12 C6         62.9318   44.0013   37.8450 C.3         1 BGC       0.0782
     13 C5         62.2554   43.5137   36.5402 C.3         1 BGC       0.1538
     14 C4         60.7660   43.9327   36.3805 C.3         1 BGC       0.1259
     15 C3         60.2900   43.4033   34.9970 C.3         1 BGC       0.1245
     16 C2         60.5324   41.8693   34.9094 C.3         1 BGC       0.0256
     17 O6         62.0641   43.8507   38.9802 O.3         1 BGC      -0.3922
     18 O5         62.3221   42.0727   36.4996 O.3         1 BGC      -0.3215
     19 O4         60.6335   45.3642   36.4974 O.3         1 BGC      -0.3398
     20 O3         58.9128   43.6822   34.7295 O.3         1 BGC      -0.3838
     21 N1         61.9321   41.5628   35.2824 N.4         1 BGC       0.3939
     22 H1         60.4496   46.4185   38.9504 H           1 BGC       0.0671
     23 H2         57.3866   46.2722   39.0430 H           1 BGC       0.0648
     24 H3         59.1336   48.7823   38.8335 H           1 BGC       0.0647
     25 H4         57.2953   47.5344   36.7108 H           1 BGC       0.0647
     26 H5         57.4157   50.0250   36.5827 H           1 BGC       0.0584
     27 H6         58.1451   49.2295   35.1826 H           1 BGC       0.0584
     28 H7         58.5460   45.3658   36.7750 H           1 BGC       0.0938
     29 H8         60.3429   44.3428   39.2617 H           1 BGC       0.2101
     30 H9         57.5910   47.1200   40.9873 H           1 BGC       0.2100
     31 H10        57.3266   49.2764   39.8710 H           1 BGC       0.2100
     32 H11        60.1007   49.7769   35.8185 H           1 BGC       0.2095
     33 H12        63.1982   45.0626   37.7587 H           1 BGC       0.0586
     34 H13        63.8671   43.4303   38.0076 H           1 BGC       0.0586
     35 H14        62.8471   43.9195   35.7173 H           1 BGC       0.0702
     36 H15        60.1785   43.4272   37.1472 H           1 BGC       0.0654
     37 H16        60.8661   43.8911   34.1991 H           1 BGC       0.0674
     38 H17        60.3653   41.5195   33.8883 H           1 BGC       0.0850
     39 H18        59.8563   41.3353   35.5785 H           1 BGC       0.0850
     40 H19        62.6393   43.4580   39.6888 H           1 BGC       0.2095
     41 H20        58.6903   43.1615   33.9133 H           1 BGC       0.2101
     42 H21        62.5389   41.9478   34.5517 H           1 BGC       0.2348
     43 H22        62.0515   40.5439   35.3045 H           1 BGC       0.2348
@<TRIPOS>BOND
     1     1     2   1
     2     6     1   1
     3     1     7   1
     4     2     3   1
     5     2     8   1
     6     4     3   1
     7     3     9   1
     8     4     5   1
     9    10     4   1
    10     5    11   1
    11     6    10   1
    12    19     6   1
    13    13    12   1
    14    12    17   1
    15    14    13   1
    16    13    18   1
    17    14    15   1
    18    14    19   1
    19    15    16   1
    20    15    20   1
    21    16    21   1
    22    18    21   1
    23     1    22   1
    24     2    23   1
    25     3    24   1
    26     4    25   1
    27     5    26   1
    28     5    27   1
    29     6    28   1
    30     7    29   1
    31     8    30   1
    32     9    31   1
    33    11    32   1
    34    12    33   1
    35    12    34   1
    36    13    35   1
    37    14    36   1
    38    15    37   1
    39    16    38   1
    40    16    39   1
    41    17    40   1
    42    20    41   1
    43    21    42   1
    44    21    43   1
@<TRIPOS>SUBSTRUCTURE
     1  BGC      1

