@<TRIPOS>MOLECULE
1w3k_ligand_022
    43    44
SMALL
GAST_HUCK
****
This file was generated by PARSER (from files_GN.cpp)

@<TRIPOS>ATOM
      1 C2         57.8687   46.1165   37.2409 C.3         1 BGC       0.1341
      2 C3         57.5297   46.7474   38.6196 C.3         1 BGC       0.1141
      3 C4         57.1442   45.6666   39.6759 C.3         1 BGC       0.1119
      4 C5         58.2009   44.5210   39.7008 C.3         1 BGC       0.1130
      5 C6         57.7821   43.3108   40.5673 C.3         1 BGC       0.0730
      6 C1         58.9167   44.9879   37.4202 C.3         1 BGC       0.1884
      7 O2         58.3751   47.1214   36.3673 O.3         1 BGC      -0.3841
      8 O3         56.4633   47.6917   38.4608 O.3         1 BGC      -0.3864
      9 O4         57.0456   46.2796   40.9672 O.3         1 BGC      -0.3865
     10 O5         58.4197   44.0169   38.3674 O.3         1 BGC      -0.3405
     11 O6         57.5013   43.6595   41.9236 O.3         1 BGC      -0.3924
     12 C6         61.7395   41.6001   37.2429 C.3         1 BGC       0.0782
     13 C5         61.2258   43.0367   36.9310 C.3         1 BGC       0.1538
     14 C4         59.9361   43.1290   36.0344 C.3         1 BGC       0.1259
     15 C3         60.2968   43.0008   34.5232 C.3         1 BGC       0.1245
     16 C2         61.4477   43.9754   34.1855 C.3         1 BGC       0.0256
     17 O6         62.6090   41.0531   36.2539 O.3         1 BGC      -0.3922
     18 O5         62.2643   43.9000   36.4325 O.3         1 BGC      -0.3215
     19 O4         59.1901   44.3762   36.1421 O.3         1 BGC      -0.3398
     20 O3         60.6244   41.6554   34.1713 O.3         1 BGC      -0.3838
     21 N1         62.5804   43.7550   35.1041 N.4         1 BGC       0.3939
     22 H1         56.9639   45.6991   36.8026 H           1 BGC       0.0671
     23 H2         58.4125   47.2927   38.9851 H           1 BGC       0.0648
     24 H3         56.1666   45.2466   39.4092 H           1 BGC       0.0647
     25 H4         59.1391   44.9060   40.1066 H           1 BGC       0.0647
     26 H5         58.5930   42.5786   40.5839 H           1 BGC       0.0584
     27 H6         56.8973   42.8208   40.1312 H           1 BGC       0.0584
     28 H7         59.8538   45.4225   37.7810 H           1 BGC       0.0938
     29 H8         57.5799   47.6332   36.0665 H           1 BGC       0.2101
     30 H9         56.5428   48.3107   39.2271 H           1 BGC       0.2100
     31 H10        56.1927   46.7657   40.9632 H           1 BGC       0.2100
     32 H11        56.6681   44.1813   41.8851 H           1 BGC       0.2095
     33 H12        60.8906   40.9139   37.4017 H           1 BGC       0.0586
     34 H13        62.3175   41.6227   38.1754 H           1 BGC       0.0586
     35 H14        60.9726   43.4250   37.9101 H           1 BGC       0.0702
     36 H15        59.2478   42.3158   36.2989 H           1 BGC       0.0654
     37 H16        59.4321   43.2720   33.9152 H           1 BGC       0.0674
     38 H17        61.1031   45.0094   34.2931 H           1 BGC       0.0850
     39 H18        61.7876   43.8304   33.1606 H           1 BGC       0.0850
     40 H19        62.1370   40.2654   35.9086 H           1 BGC       0.2095
     41 H20        61.4147   41.7016   33.5744 H           1 BGC       0.2101
     42 H21        63.3143   44.4365   34.8809 H           1 BGC       0.2348
     43 H22        62.9541   42.8273   34.9190 H           1 BGC       0.2348
@<TRIPOS>BOND
     1     1     2   1
     2     6     1   1
     3     1     7   1
     4     2     3   1
     5     2     8   1
     6     4     3   1
     7     3     9   1
     8     4     5   1
     9    10     4   1
    10     5    11   1
    11     6    10   1
    12    19     6   1
    13    13    12   1
    14    12    17   1
    15    14    13   1
    16    13    18   1
    17    14    15   1
    18    14    19   1
    19    15    16   1
    20    15    20   1
    21    16    21   1
    22    18    21   1
    23     1    22   1
    24     2    23   1
    25     3    24   1
    26     4    25   1
    27     5    26   1
    28     5    27   1
    29     6    28   1
    30     7    29   1
    31     8    30   1
    32     9    31   1
    33    11    32   1
    34    12    33   1
    35    12    34   1
    36    13    35   1
    37    14    36   1
    38    15    37   1
    39    16    38   1
    40    16    39   1
    41    17    40   1
    42    20    41   1
    43    21    42   1
    44    21    43   1
@<TRIPOS>SUBSTRUCTURE
     1  BGC      1

