@<TRIPOS>MOLECULE
1w3k_ligand_006
    43    44
SMALL
GAST_HUCK
****
This file was generated by PARSER (from files_GN.cpp)

@<TRIPOS>ATOM
      1 C2         61.8643   45.9149   36.9399 C.3         1 BGC       0.1341
      2 C3         61.9641   47.4647   37.0518 C.3         1 BGC       0.1141
      3 C4         60.6396   48.1518   36.6428 C.3         1 BGC       0.1119
      4 C5         59.4514   47.5107   37.4214 C.3         1 BGC       0.1130
      5 C6         58.0814   48.1495   37.0687 C.3         1 BGC       0.0730
      6 C1         60.5751   45.3537   37.6003 C.3         1 BGC       0.1884
      7 O2         63.0186   45.3119   37.5346 O.3         1 BGC      -0.3841
      8 O3         63.0232   47.8808   36.1928 O.3         1 BGC      -0.3864
      9 O4         60.7161   49.5586   36.8815 O.3         1 BGC      -0.3865
     10 O5         59.4147   46.0863   37.1516 O.3         1 BGC      -0.3405
     11 O6         58.0273   48.6938   35.7488 O.3         1 BGC      -0.3924
     12 C6         63.0029   42.4154   36.4784 C.3         1 BGC       0.0782
     13 C5         61.7241   41.8574   37.1485 C.3         1 BGC       0.1538
     14 C4         60.9629   42.9136   38.0185 C.3         1 BGC       0.1259
     15 C3         59.8067   42.2010   38.7834 C.3         1 BGC       0.1245
     16 C2         60.3072   40.9161   39.4915 C.3         1 BGC       0.0256
     17 O6         62.6760   43.4232   35.5285 O.3         1 BGC      -0.3922
     18 O5         62.1259   40.7462   37.9844 O.3         1 BGC      -0.3215
     19 O4         60.4032   43.9710   37.2015 O.3         1 BGC      -0.3398
     20 O3         59.2105   43.0731   39.7464 O.3         1 BGC      -0.3838
     21 N1         61.0604   40.0832   38.5372 N.4         1 BGC       0.3939
     22 H1         61.8565   45.6404   35.8797 H           1 BGC       0.0671
     23 H2         62.2170   47.7421   38.0792 H           1 BGC       0.0648
     24 H3         60.4839   47.9925   35.5733 H           1 BGC       0.0647
     25 H4         59.5952   47.6621   38.4956 H           1 BGC       0.0647
     26 H5         57.8658   48.9705   37.7660 H           1 BGC       0.0584
     27 H6         57.2847   47.3997   37.1667 H           1 BGC       0.0584
     28 H7         60.6448   45.4381   38.6922 H           1 BGC       0.0938
     29 H8         63.7725   45.5733   36.9424 H           1 BGC       0.2101
     30 H9         63.0625   48.8581   36.2561 H           1 BGC       0.2100
     31 H10        61.3114   49.8996   36.1780 H           1 BGC       0.2100
     32 H11        58.1494   47.9320   35.1524 H           1 BGC       0.2095
     33 H12        63.5345   41.6054   35.9640 H           1 BGC       0.0586
     34 H13        63.6693   42.8436   37.2335 H           1 BGC       0.0586
     35 H14        61.0607   41.4853   36.3611 H           1 BGC       0.0702
     36 H15        61.6749   43.3048   38.7582 H           1 BGC       0.0654
     37 H16        59.0332   41.9159   38.0635 H           1 BGC       0.0674
     38 H17        59.4578   40.3431   39.8716 H           1 BGC       0.0850
     39 H18        60.9553   41.1755   40.3324 H           1 BGC       0.0850
     40 H19        62.8290   42.9917   34.6510 H           1 BGC       0.2095
     41 H20        58.6760   43.7073   39.2201 H           1 BGC       0.2101
     42 H21        60.4487   39.7749   37.7789 H           1 BGC       0.2348
     43 H22        61.4099   39.2575   39.0282 H           1 BGC       0.2348
@<TRIPOS>BOND
     1     1     2   1
     2     6     1   1
     3     1     7   1
     4     2     3   1
     5     2     8   1
     6     4     3   1
     7     3     9   1
     8     4     5   1
     9    10     4   1
    10     5    11   1
    11     6    10   1
    12    19     6   1
    13    13    12   1
    14    12    17   1
    15    14    13   1
    16    13    18   1
    17    14    15   1
    18    14    19   1
    19    15    16   1
    20    15    20   1
    21    16    21   1
    22    18    21   1
    23     1    22   1
    24     2    23   1
    25     3    24   1
    26     4    25   1
    27     5    26   1
    28     5    27   1
    29     6    28   1
    30     7    29   1
    31     8    30   1
    32     9    31   1
    33    11    32   1
    34    12    33   1
    35    12    34   1
    36    13    35   1
    37    14    36   1
    38    15    37   1
    39    16    38   1
    40    16    39   1
    41    17    40   1
    42    20    41   1
    43    21    42   1
    44    21    43   1
@<TRIPOS>SUBSTRUCTURE
     1  BGC      1

