@<TRIPOS>MOLECULE
1w3l_ligand_069
    64    66
SMALL
GAST_HUCK
****
This file was generated by PARSER (from files_GN.cpp)

@<TRIPOS>ATOM
      1 C2         61.0101   42.3758   36.8929 C.3         1 MOL       0.1341
      2 C3         61.8496   42.5960   35.5950 C.3         1 MOL       0.1141
      3 C4         61.5591   43.9799   34.9445 C.3         1 MOL       0.1119
      4 C5         61.7233   45.0934   36.0216 C.3         1 MOL       0.1130
      5 C6         61.3254   46.5163   35.5558 C.3         1 MOL       0.0730
      6 C1         61.1182   43.5953   37.8521 C.3         1 MOL       0.1884
      7 O2         61.4472   41.2060   37.5896 O.3         1 MOL      -0.3841
      8 O3         61.5692   41.5653   34.6468 O.3         1 MOL      -0.3864
      9 O4         62.4464   44.2155   33.8492 O.3         1 MOL      -0.3865
     10 O5         60.8410   44.8016   37.1266 O.3         1 MOL      -0.3405
     11 O6         61.6929   47.5018   36.5257 O.3         1 MOL      -0.3924
     12 C2         60.7061   45.8012   41.9435 C.3         1 MOL       0.1341
     13 C3         61.0185   44.6520   40.9440 C.3         1 MOL       0.1144
     14 C4         59.8966   44.5167   39.8728 C.3         1 MOL       0.1184
     15 C5         59.5265   45.9171   39.2623 C.3         1 MOL       0.1134
     16 C6         58.2550   45.8423   38.3770 C.3         1 MOL       0.0730
     17 C1         60.4582   47.1095   41.1517 C.3         1 MOL       0.1884
     18 O2         61.7756   45.9699   42.8674 O.3         1 MOL      -0.3841
     19 O3         61.1770   43.4288   41.6607 O.3         1 MOL      -0.3864
     20 O4         60.1404   43.4565   38.9081 O.3         1 MOL      -0.3401
     21 O5         59.3139   46.9139   40.2920 O.3         1 MOL      -0.3405
     22 O6         57.9356   47.1136   37.8107 O.3         1 MOL      -0.3924
     23 C6         58.6984   50.2887   40.3028 C.3         1 MOL       0.0782
     24 C5         60.2344   50.1577   40.4457 C.3         1 MOL       0.1538
     25 C4         60.6624   49.5208   41.8090 C.3         1 MOL       0.1259
     26 C3         62.2088   49.6169   41.9869 C.3         1 MOL       0.1245
     27 C2         62.7061   51.0506   41.6803 C.3         1 MOL       0.0256
     28 O6         58.3552   51.0209   39.1302 O.3         1 MOL      -0.3922
     29 O5         60.8004   51.4801   40.3231 O.3         1 MOL      -0.3215
     30 O4         60.1594   48.1853   42.0639 O.3         1 MOL      -0.3398
     31 O3         62.5647   49.2348   43.3170 O.3         1 MOL      -0.3838
     32 N1         62.1728   51.5050   40.3785 N.4         1 MOL       0.3939
     33 H1         59.9574   42.2405   36.6181 H           1 MOL       0.0671
     34 H2         62.9112   42.5382   35.8528 H           1 MOL       0.0648
     35 H3         60.5289   44.0016   34.5699 H           1 MOL       0.0647
     36 H4         62.7663   45.1316   36.3634 H           1 MOL       0.0647
     37 H5         60.2425   46.5770   35.4042 H           1 MOL       0.0584
     38 H6         61.8167   46.7653   34.6169 H           1 MOL       0.0584
     39 H7         62.1272   43.6292   38.2799 H           1 MOL       0.0938
     40 H8         61.3104   40.4628   36.9648 H           1 MOL       0.2101
     41 H9         62.2822   41.6319   33.9701 H           1 MOL       0.2100
     42 H10        62.2428   43.5224   33.1838 H           1 MOL       0.2100
     43 H11        62.6583   47.3852   36.6578 H           1 MOL       0.2095
     44 H12        59.8056   45.5563   42.5155 H           1 MOL       0.0671
     45 H13        61.9662   44.8769   40.4493 H           1 MOL       0.0648
     46 H14        59.0054   44.1842   40.4170 H           1 MOL       0.0651
     47 H15        60.3396   46.2871   38.6338 H           1 MOL       0.0647
     48 H16        57.4000   45.5105   38.9760 H           1 MOL       0.0584
     49 H17        58.4087   45.1295   37.5619 H           1 MOL       0.0584
     50 H18        61.3467   47.3310   40.5490 H           1 MOL       0.0938
     51 H19        61.7857   45.1383   43.3855 H           1 MOL       0.2101
     52 H20        61.4893   42.7737   40.9997 H           1 MOL       0.2100
     53 H21        58.6894   47.3248   37.2123 H           1 MOL       0.2095
     54 H22        58.2854   50.8112   41.1678 H           1 MOL       0.0586
     55 H23        58.2331   49.3032   40.2410 H           1 MOL       0.0586
     56 H24        60.6025   49.5477   39.6158 H           1 MOL       0.0702
     57 H25        60.2229   50.1400   42.5990 H           1 MOL       0.0654
     58 H26        62.7094   48.9317   41.2975 H           1 MOL       0.0674
     59 H27        63.7984   51.0673   41.6472 H           1 MOL       0.0850
     60 H28        62.3741   51.7365   42.4626 H           1 MOL       0.0850
     61 H29        58.7026   50.4952   38.3828 H           1 MOL       0.2095
     62 H30        63.5441   49.1989   43.3221 H           1 MOL       0.2101
     63 H31        62.5593   50.9293   39.6246 H           1 MOL       0.2348
     64 H32        62.4792   52.4689   40.2290 H           1 MOL       0.2348
@<TRIPOS>BOND
     1     1     2   1
     2     6     1   1
     3     1     7   1
     4     2     3   1
     5     2     8   1
     6     4     3   1
     7     3     9   1
     8     4     5   1
     9    10     4   1
    10     5    11   1
    11     6    10   1
    12    20     6   1
    13    12    13   1
    14    17    12   1
    15    12    18   1
    16    13    14   1
    17    13    19   1
    18    15    14   1
    19    14    20   1
    20    15    16   1
    21    21    15   1
    22    16    22   1
    23    17    21   1
    24    30    17   1
    25    24    23   1
    26    23    28   1
    27    25    24   1
    28    24    29   1
    29    25    26   1
    30    25    30   1
    31    26    27   1
    32    26    31   1
    33    27    32   1
    34    29    32   1
    35     1    33   1
    36     2    34   1
    37     3    35   1
    38     4    36   1
    39     5    37   1
    40     5    38   1
    41     6    39   1
    42     7    40   1
    43     8    41   1
    44     9    42   1
    45    11    43   1
    46    12    44   1
    47    13    45   1
    48    14    46   1
    49    15    47   1
    50    16    48   1
    51    16    49   1
    52    17    50   1
    53    18    51   1
    54    19    52   1
    55    22    53   1
    56    23    54   1
    57    23    55   1
    58    24    56   1
    59    25    57   1
    60    26    58   1
    61    27    59   1
    62    27    60   1
    63    28    61   1
    64    31    62   1
    65    32    63   1
    66    32    64   1
@<TRIPOS>SUBSTRUCTURE
     1  MOL      1

