@<TRIPOS>MOLECULE
1w3l_ligand_058
    64    66
SMALL
GAST_HUCK
****
This file was generated by PARSER (from files_GN.cpp)

@<TRIPOS>ATOM
      1 C2         60.9828   44.7684   37.9563 C.3         1 MOL       0.1341
      2 C3         61.6677   43.3914   37.7593 C.3         1 MOL       0.1141
      3 C4         61.1926   42.6733   36.4667 C.3         1 MOL       0.1119
      4 C5         61.2986   43.6336   35.2395 C.3         1 MOL       0.1130
      5 C6         60.6408   43.0585   33.9606 C.3         1 MOL       0.0730
      6 C1         61.0276   45.6382   36.6617 C.3         1 MOL       0.1884
      7 O2         61.6394   45.4294   39.0370 O.3         1 MOL      -0.3841
      8 O3         61.4104   42.5602   38.8990 O.3         1 MOL      -0.3864
      9 O4         62.0066   41.5134   36.2994 O.3         1 MOL      -0.3865
     10 O5         60.6068   44.8682   35.5196 O.3         1 MOL      -0.3405
     11 O6         60.9679   41.6963   33.7077 O.3         1 MOL      -0.3924
     12 C2         60.3726   49.6747   39.1149 C.3         1 MOL       0.1341
     13 C3         60.7847   48.8130   37.8783 C.3         1 MOL       0.1144
     14 C4         59.8242   47.5932   37.7384 C.3         1 MOL       0.1184
     15 C5         58.3663   48.1433   37.5966 C.3         1 MOL       0.1134
     16 C6         57.2973   47.0290   37.4255 C.3         1 MOL       0.0730
     17 C1         58.8575   50.0453   39.0572 C.3         1 MOL       0.1884
     18 O2         61.1444   50.8780   39.1899 O.3         1 MOL      -0.3841
     19 O3         62.1382   48.3817   38.0044 O.3         1 MOL      -0.3864
     20 O4         60.1009   46.7385   36.6088 O.3         1 MOL      -0.3401
     21 O5         58.0213   48.9013   38.7830 O.3         1 MOL      -0.3405
     22 O6         57.5623   45.8995   38.2599 O.3         1 MOL      -0.3924
     23 C6         59.4736   53.9472   41.6364 C.3         1 MOL       0.0782
     24 C5         59.3146   52.3956   41.5765 C.3         1 MOL       0.1538
     25 C4         58.1714   51.8720   40.6434 C.3         1 MOL       0.1259
     26 C3         56.7938   51.9366   41.3573 C.3         1 MOL       0.1245
     27 C2         56.8838   51.2967   42.7606 C.3         1 MOL       0.0256
     28 O6         58.8456   54.5700   42.7643 O.3         1 MOL      -0.3922
     29 O5         59.2302   51.7783   42.8828 O.3         1 MOL      -0.3215
     30 O4         58.4198   50.4768   40.3618 O.3         1 MOL      -0.3398
     31 O3         56.3284   53.2882   41.4580 O.3         1 MOL      -0.3838
     32 N1         58.0097   51.8796   43.5147 N.4         1 MOL       0.3939
     33 H1         59.9406   44.6061   38.2330 H           1 MOL       0.0671
     34 H2         62.7519   43.5403   37.7006 H           1 MOL       0.0648
     35 H3         60.1493   42.3644   36.6024 H           1 MOL       0.0647
     36 H4         62.3566   43.8344   35.0320 H           1 MOL       0.0647
     37 H5         60.9496   43.6599   33.1002 H           1 MOL       0.0584
     38 H6         59.5537   43.1267   34.0526 H           1 MOL       0.0584
     39 H7         62.0439   45.9991   36.4876 H           1 MOL       0.0938
     40 H8         62.5249   45.6855   38.6970 H           1 MOL       0.2101
     41 H9         60.4395   42.4368   38.9101 H           1 MOL       0.2100
     42 H10        61.3898   40.7529   36.3163 H           1 MOL       0.2100
     43 H11        61.8546   41.7097   33.2866 H           1 MOL       0.2095
     44 H12        60.5583   49.0903   40.0220 H           1 MOL       0.0671
     45 H13        60.7215   49.4266   36.9731 H           1 MOL       0.0648
     46 H14        59.8345   47.0301   38.6699 H           1 MOL       0.0651
     47 H15        58.2941   48.7916   36.7067 H           1 MOL       0.0647
     48 H16        57.2701   46.6914   36.3830 H           1 MOL       0.0584
     49 H17        56.3035   47.4236   37.6745 H           1 MOL       0.0584
     50 H18        58.6910   50.7930   38.2743 H           1 MOL       0.0938
     51 H19        62.0695   50.6209   38.9887 H           1 MOL       0.2101
     52 H20        62.6829   49.1563   37.7374 H           1 MOL       0.2100
     53 H21        57.4271   46.2266   39.1756 H           1 MOL       0.2095
     54 H22        59.0546   54.4056   40.7282 H           1 MOL       0.0586
     55 H23        60.5447   54.2080   41.6660 H           1 MOL       0.0586
     56 H24        60.2560   52.0354   41.1481 H           1 MOL       0.0702
     57 H25        58.1284   52.4825   39.7269 H           1 MOL       0.0654
     58 H26        56.0548   51.3918   40.7561 H           1 MOL       0.0674
     59 H27        57.0317   50.2219   42.6749 H           1 MOL       0.0850
     60 H28        55.9578   51.4747   43.3070 H           1 MOL       0.0850
     61 H29        59.4693   54.4179   43.5065 H           1 MOL       0.2095
     62 H30        56.1647   53.5780   40.5332 H           1 MOL       0.2101
     63 H31        58.0825   51.3922   44.4083 H           1 MOL       0.2348
     64 H32        57.8042   52.8618   43.7059 H           1 MOL       0.2348
@<TRIPOS>BOND
     1     1     2   1
     2     6     1   1
     3     1     7   1
     4     2     3   1
     5     2     8   1
     6     4     3   1
     7     3     9   1
     8     4     5   1
     9    10     4   1
    10     5    11   1
    11     6    10   1
    12    20     6   1
    13    12    13   1
    14    17    12   1
    15    12    18   1
    16    13    14   1
    17    13    19   1
    18    15    14   1
    19    14    20   1
    20    15    16   1
    21    21    15   1
    22    16    22   1
    23    17    21   1
    24    30    17   1
    25    24    23   1
    26    23    28   1
    27    25    24   1
    28    24    29   1
    29    25    26   1
    30    25    30   1
    31    26    27   1
    32    26    31   1
    33    27    32   1
    34    29    32   1
    35     1    33   1
    36     2    34   1
    37     3    35   1
    38     4    36   1
    39     5    37   1
    40     5    38   1
    41     6    39   1
    42     7    40   1
    43     8    41   1
    44     9    42   1
    45    11    43   1
    46    12    44   1
    47    13    45   1
    48    14    46   1
    49    15    47   1
    50    16    48   1
    51    16    49   1
    52    17    50   1
    53    18    51   1
    54    19    52   1
    55    22    53   1
    56    23    54   1
    57    23    55   1
    58    24    56   1
    59    25    57   1
    60    26    58   1
    61    27    59   1
    62    27    60   1
    63    28    61   1
    64    31    62   1
    65    32    63   1
    66    32    64   1
@<TRIPOS>SUBSTRUCTURE
     1  MOL      1

