@<TRIPOS>MOLECULE
1w3l_ligand_057
    64    66
SMALL
GAST_HUCK
****
This file was generated by PARSER (from files_GN.cpp)

@<TRIPOS>ATOM
      1 C2         57.7474   51.2039   39.8558 C.3         1 MOL       0.1341
      2 C3         56.7239   51.7397   40.8936 C.3         1 MOL       0.1141
      3 C4         55.3376   51.0665   40.7142 C.3         1 MOL       0.1119
      4 C5         55.4729   49.5124   40.7068 C.3         1 MOL       0.1130
      5 C6         54.1454   48.8101   40.3243 C.3         1 MOL       0.0730
      6 C1         57.7890   49.6508   39.9110 C.3         1 MOL       0.1884
      7 O2         59.0460   51.7317   40.1196 O.3         1 MOL      -0.3841
      8 O3         56.5988   53.1541   40.7641 O.3         1 MOL      -0.3864
      9 O4         54.4565   51.4871   41.7559 O.3         1 MOL      -0.3865
     10 O5         56.4660   49.0912   39.7459 O.3         1 MOL      -0.3405
     11 O6         54.2762   47.3925   40.4162 O.3         1 MOL      -0.3924
     12 C2         59.9213   45.6754   39.8608 C.3         1 MOL       0.1341
     13 C3         58.9637   46.9043   39.9137 C.3         1 MOL       0.1144
     14 C4         59.4460   48.0376   38.9513 C.3         1 MOL       0.1184
     15 C5         59.6645   47.4312   37.5313 C.3         1 MOL       0.1134
     16 C6         60.2295   48.4420   36.5003 C.3         1 MOL       0.0730
     17 C1         60.1548   45.2082   38.3968 C.3         1 MOL       0.1884
     18 O2         59.3870   44.6024   40.6495 O.3         1 MOL      -0.3841
     19 O3         58.9084   47.3623   41.2687 O.3         1 MOL      -0.3864
     20 O4         58.5473   49.1567   38.7899 O.3         1 MOL      -0.3401
     21 O5         60.5873   46.3268   37.5976 O.3         1 MOL      -0.3405
     22 O6         60.5670   47.7785   35.2780 O.3         1 MOL      -0.3924
     23 C6         63.4782   45.4622   36.9568 C.3         1 MOL       0.0782
     24 C5         62.4050   44.5982   36.2502 C.3         1 MOL       0.1538
     25 C4         61.6961   43.6004   37.2181 C.3         1 MOL       0.1259
     26 C3         60.6883   42.7358   36.4122 C.3         1 MOL       0.1245
     27 C2         61.3879   42.1052   35.1779 C.3         1 MOL       0.0256
     28 O6         64.5237   44.6829   37.5422 O.3         1 MOL      -0.3922
     29 O5         63.0280   43.8630   35.1800 O.3         1 MOL      -0.3215
     30 O4         61.1672   44.1860   38.4263 O.3         1 MOL      -0.3398
     31 O3         60.1207   41.7142   37.2374 O.3         1 MOL      -0.3838
     32 N1         62.1209   43.1443   34.4242 N.4         1 MOL       0.3939
     33 H1         57.4467   51.5158   38.8537 H           1 MOL       0.0671
     34 H2         57.0906   51.5277   41.9041 H           1 MOL       0.0648
     35 H3         54.9081   51.3930   39.7647 H           1 MOL       0.0647
     36 H4         55.7678   49.1692   41.7055 H           1 MOL       0.0647
     37 H5         53.8687   49.0647   39.2966 H           1 MOL       0.0584
     38 H6         53.3430   49.1279   40.9944 H           1 MOL       0.0584
     39 H7         58.2333   49.3452   40.8721 H           1 MOL       0.0938
     40 H8         59.2436   51.4861   41.0494 H           1 MOL       0.2101
     41 H9         57.4520   53.5176   41.0864 H           1 MOL       0.2100
     42 H10        54.8655   51.1637   42.5851 H           1 MOL       0.2100
     43 H11        53.3848   47.0428   40.1951 H           1 MOL       0.2095
     44 H12        60.8902   45.9639   40.2969 H           1 MOL       0.0671
     45 H13        57.9576   46.5843   39.6207 H           1 MOL       0.0648
     46 H14        60.4025   48.4190   39.3216 H           1 MOL       0.0651
     47 H15        58.7028   47.0812   37.1375 H           1 MOL       0.0647
     48 H16        61.1304   48.9273   36.8906 H           1 MOL       0.0584
     49 H17        59.4890   49.2183   36.2698 H           1 MOL       0.0584
     50 H18        59.2152   44.7939   38.0180 H           1 MOL       0.0938
     51 H19        60.1193   43.9540   40.7289 H           1 MOL       0.2101
     52 H20        58.3715   46.6787   41.7426 H           1 MOL       0.2100
     53 H21        59.7152   47.4627   34.9030 H           1 MOL       0.2095
     54 H22        63.0229   46.0661   37.7520 H           1 MOL       0.0586
     55 H23        63.9334   46.1542   36.2380 H           1 MOL       0.0586
     56 H24        61.6816   45.2840   35.8063 H           1 MOL       0.0702
     57 H25        62.4595   42.9110   37.5763 H           1 MOL       0.0654
     58 H26        59.8630   43.3632   36.0507 H           1 MOL       0.0674
     59 H27        60.6458   41.6420   34.5198 H           1 MOL       0.0850
     60 H28        62.0917   41.3331   35.4957 H           1 MOL       0.0850
     61 H29        64.9896   44.2817   36.7795 H           1 MOL       0.2095
     62 H30        60.3600   40.8624   36.8155 H           1 MOL       0.2101
     63 H31        61.4515   43.7909   34.0019 H           1 MOL       0.2348
     64 H32        62.6288   42.6673   33.6816 H           1 MOL       0.2348
@<TRIPOS>BOND
     1     1     2   1
     2     6     1   1
     3     1     7   1
     4     2     3   1
     5     2     8   1
     6     4     3   1
     7     3     9   1
     8     4     5   1
     9    10     4   1
    10     5    11   1
    11     6    10   1
    12    20     6   1
    13    12    13   1
    14    17    12   1
    15    12    18   1
    16    13    14   1
    17    13    19   1
    18    15    14   1
    19    14    20   1
    20    15    16   1
    21    21    15   1
    22    16    22   1
    23    17    21   1
    24    30    17   1
    25    24    23   1
    26    23    28   1
    27    25    24   1
    28    24    29   1
    29    25    26   1
    30    25    30   1
    31    26    27   1
    32    26    31   1
    33    27    32   1
    34    29    32   1
    35     1    33   1
    36     2    34   1
    37     3    35   1
    38     4    36   1
    39     5    37   1
    40     5    38   1
    41     6    39   1
    42     7    40   1
    43     8    41   1
    44     9    42   1
    45    11    43   1
    46    12    44   1
    47    13    45   1
    48    14    46   1
    49    15    47   1
    50    16    48   1
    51    16    49   1
    52    17    50   1
    53    18    51   1
    54    19    52   1
    55    22    53   1
    56    23    54   1
    57    23    55   1
    58    24    56   1
    59    25    57   1
    60    26    58   1
    61    27    59   1
    62    27    60   1
    63    28    61   1
    64    31    62   1
    65    32    63   1
    66    32    64   1
@<TRIPOS>SUBSTRUCTURE
     1  MOL      1

