@<TRIPOS>MOLECULE
1w3l_ligand_033
    64    66
SMALL
GAST_HUCK
****
This file was generated by PARSER (from files_GN.cpp)

@<TRIPOS>ATOM
      1 C2         57.3195   51.6586   39.4968 C.3         1 MOL       0.1341
      2 C3         56.0723   52.4506   39.0156 C.3         1 MOL       0.1141
      3 C4         56.4027   53.2964   37.7541 C.3         1 MOL       0.1119
      4 C5         57.0550   52.4088   36.6470 C.3         1 MOL       0.1130
      5 C6         57.6384   53.2410   35.4794 C.3         1 MOL       0.0730
      6 C1         57.8832   50.8140   38.3202 C.3         1 MOL       0.1884
      7 O2         56.9620   50.8179   40.5943 O.3         1 MOL      -0.3841
      8 O3         55.6029   53.2835   40.0750 O.3         1 MOL      -0.3864
      9 O4         55.2183   53.9098   37.2351 O.3         1 MOL      -0.3865
     10 O5         58.1579   51.6552   37.1849 O.3         1 MOL      -0.3405
     11 O6         58.9472   53.6938   35.8188 O.3         1 MOL      -0.3924
     12 C2         60.3430   47.8125   35.9031 C.3         1 MOL       0.1341
     13 C3         59.6261   49.0692   36.4699 C.3         1 MOL       0.1144
     14 C4         59.6839   49.0873   38.0336 C.3         1 MOL       0.1184
     15 C5         61.1804   48.9557   38.4577 C.3         1 MOL       0.1134
     16 C6         61.4175   48.9379   39.9909 C.3         1 MOL       0.0730
     17 C1         61.7807   47.6642   36.4770 C.3         1 MOL       0.1884
     18 O2         60.4084   47.8469   34.4794 O.3         1 MOL      -0.3841
     19 O3         58.2948   49.0340   35.9644 O.3         1 MOL      -0.3864
     20 O4         59.1622   50.2689   38.6889 O.3         1 MOL      -0.3401
     21 O5         61.7582   47.7483   37.9144 O.3         1 MOL      -0.3405
     22 O6         62.7414   49.3728   40.3087 O.3         1 MOL      -0.3924
     23 C6         60.1327   43.5719   37.1722 C.3         1 MOL       0.0782
     24 C5         61.1845   44.7072   37.3443 C.3         1 MOL       0.1538
     25 C4         61.8700   45.1639   36.0099 C.3         1 MOL       0.1259
     26 C3         62.9729   44.1486   35.5853 C.3         1 MOL       0.1245
     27 C2         63.8782   43.7778   36.7861 C.3         1 MOL       0.0256
     28 O6         59.5052   43.2687   38.4183 O.3         1 MOL      -0.3922
     29 O5         62.1797   44.3821   38.3349 O.3         1 MOL      -0.3215
     30 O4         62.5011   46.4699   36.0909 O.3         1 MOL      -0.3398
     31 O3         62.3696   42.9737   35.0339 O.3         1 MOL      -0.3838
     32 N1         63.0520   43.3960   37.9461 N.4         1 MOL       0.3939
     33 H1         58.0856   52.3664   39.8339 H           1 MOL       0.0671
     34 H2         55.2806   51.7338   38.7741 H           1 MOL       0.0648
     35 H3         57.0994   54.0935   38.0398 H           1 MOL       0.0647
     36 H4         56.3073   51.7078   36.2512 H           1 MOL       0.0647
     37 H5         57.0012   54.0972   35.2409 H           1 MOL       0.0584
     38 H6         57.7125   52.6132   34.5904 H           1 MOL       0.0584
     39 H7         57.1590   50.0230   38.0774 H           1 MOL       0.0938
     40 H8         57.8154   50.4918   40.9514 H           1 MOL       0.2101
     41 H9         54.6888   53.5212   39.8220 H           1 MOL       0.2100
     42 H10        55.0191   54.6472   37.8479 H           1 MOL       0.2100
     43 H11        59.1477   54.4524   35.2285 H           1 MOL       0.2095
     44 H12        59.7530   46.9417   36.1934 H           1 MOL       0.0671
     45 H13        60.1166   49.9663   36.0807 H           1 MOL       0.0648
     46 H14        59.1391   48.2233   38.4226 H           1 MOL       0.0651
     47 H15        61.7209   49.8262   38.0679 H           1 MOL       0.0647
     48 H16        61.2598   47.9293   40.3834 H           1 MOL       0.0584
     49 H17        60.7270   49.6190   40.4942 H           1 MOL       0.0584
     50 H18        62.3910   48.4939   36.0945 H           1 MOL       0.0938
     51 H19        59.5264   47.5382   34.1941 H           1 MOL       0.2101
     52 H20        58.0500   49.9639   35.8043 H           1 MOL       0.2100
     53 H21        62.9849   49.9956   39.5878 H           1 MOL       0.2095
     54 H22        60.5891   42.6582   36.7836 H           1 MOL       0.0586
     55 H23        59.3620   43.8986   36.4696 H           1 MOL       0.0586
     56 H24        60.6175   45.5483   37.7440 H           1 MOL       0.0702
     57 H25        61.1323   45.1966   35.2006 H           1 MOL       0.0654
     58 H26        63.5946   44.5796   34.7964 H           1 MOL       0.0674
     59 H27        64.5125   44.6255   37.0574 H           1 MOL       0.0850
     60 H28        64.5173   42.9339   36.5253 H           1 MOL       0.0850
     61 H29        60.2025   42.8373   38.9574 H           1 MOL       0.2095
     62 H30        62.9086   42.7356   34.2504 H           1 MOL       0.2101
     63 H31        63.6683   43.1930   38.7333 H           1 MOL       0.2348
     64 H32        62.5290   42.5485   37.7212 H           1 MOL       0.2348
@<TRIPOS>BOND
     1     1     2   1
     2     6     1   1
     3     1     7   1
     4     2     3   1
     5     2     8   1
     6     4     3   1
     7     3     9   1
     8     4     5   1
     9    10     4   1
    10     5    11   1
    11     6    10   1
    12    20     6   1
    13    12    13   1
    14    17    12   1
    15    12    18   1
    16    13    14   1
    17    13    19   1
    18    15    14   1
    19    14    20   1
    20    15    16   1
    21    21    15   1
    22    16    22   1
    23    17    21   1
    24    30    17   1
    25    24    23   1
    26    23    28   1
    27    25    24   1
    28    24    29   1
    29    25    26   1
    30    25    30   1
    31    26    27   1
    32    26    31   1
    33    27    32   1
    34    29    32   1
    35     1    33   1
    36     2    34   1
    37     3    35   1
    38     4    36   1
    39     5    37   1
    40     5    38   1
    41     6    39   1
    42     7    40   1
    43     8    41   1
    44     9    42   1
    45    11    43   1
    46    12    44   1
    47    13    45   1
    48    14    46   1
    49    15    47   1
    50    16    48   1
    51    16    49   1
    52    17    50   1
    53    18    51   1
    54    19    52   1
    55    22    53   1
    56    23    54   1
    57    23    55   1
    58    24    56   1
    59    25    57   1
    60    26    58   1
    61    27    59   1
    62    27    60   1
    63    28    61   1
    64    31    62   1
    65    32    63   1
    66    32    64   1
@<TRIPOS>SUBSTRUCTURE
     1  MOL      1

