@<TRIPOS>MOLECULE
1w3l_ligand_052
    64    66
SMALL
GAST_HUCK
****
This file was generated by PARSER (from files_GN.cpp)

@<TRIPOS>ATOM
      1 C2         64.0829   40.2239   37.7573 C.3         1 MOL       0.1341
      2 C3         64.5512   39.2071   38.8395 C.3         1 MOL       0.1141
      3 C4         63.7592   39.3957   40.1699 C.3         1 MOL       0.1119
      4 C5         62.2249   39.3505   39.8884 C.3         1 MOL       0.1130
      5 C6         61.3489   39.6878   41.1288 C.3         1 MOL       0.0730
      6 C1         62.5390   40.2325   37.6067 C.3         1 MOL       0.1884
      7 O2         64.6827   39.9310   36.4932 O.3         1 MOL      -0.3841
      8 O3         65.9486   39.3938   39.0621 O.3         1 MOL      -0.3864
      9 O4         64.1612   38.4032   41.1230 O.3         1 MOL      -0.3865
     10 O5         61.8569   40.3380   38.8810 O.3         1 MOL      -0.3405
     11 O6         61.3360   38.6402   42.0908 O.3         1 MOL      -0.3924
     12 C2         60.9462   44.4671   38.5121 C.3         1 MOL       0.1341
     13 C3         61.8043   43.2010   38.2644 C.3         1 MOL       0.1144
     14 C4         61.3000   42.3710   37.0458 C.3         1 MOL       0.1184
     15 C5         61.1902   43.3259   35.8141 C.3         1 MOL       0.1134
     16 C6         60.6065   42.6528   34.5416 C.3         1 MOL       0.0730
     17 C1         60.7444   45.2985   37.2052 C.3         1 MOL       0.1884
     18 O2         61.5940   45.2743   39.5025 O.3         1 MOL      -0.3841
     19 O3         61.7634   42.4015   39.4512 O.3         1 MOL      -0.3864
     20 O4         62.1895   41.2971   36.6842 O.3         1 MOL      -0.3401
     21 O5         60.3271   44.4465   36.1143 O.3         1 MOL      -0.3405
     22 O6         61.2929   41.4619   34.1449 O.3         1 MOL      -0.3924
     23 C6         57.8970   48.8900   39.3820 C.3         1 MOL       0.0782
     24 C5         58.2825   48.0240   38.1556 C.3         1 MOL       0.1538
     25 C4         59.7274   47.4225   38.1664 C.3         1 MOL       0.1259
     26 C3         60.7940   48.4691   37.7184 C.3         1 MOL       0.1245
     27 C2         60.3258   49.2104   36.4513 C.3         1 MOL       0.0256
     28 O6         57.6126   48.0975   40.5321 O.3         1 MOL      -0.3922
     29 O5         58.0455   48.7300   36.9174 O.3         1 MOL      -0.3215
     30 O4         59.6765   46.2734   37.2855 O.3         1 MOL      -0.3398
     31 O3         61.0707   49.4014   38.7597 O.3         1 MOL      -0.3838
     32 N1         58.9526   49.7213   36.6407 N.4         1 MOL       0.3939
     33 H1         64.4053   41.2255   38.0565 H           1 MOL       0.0671
     34 H2         64.3862   38.1890   38.4672 H           1 MOL       0.0648
     35 H3         64.0070   40.3785   40.5870 H           1 MOL       0.0647
     36 H4         61.9556   38.3446   39.5394 H           1 MOL       0.0647
     37 H5         60.3208   39.8509   40.8010 H           1 MOL       0.0584
     38 H6         61.7068   40.6121   41.5999 H           1 MOL       0.0584
     39 H7         62.2302   39.2944   37.1464 H           1 MOL       0.0938
     40 H8         63.9909   39.4631   35.9643 H           1 MOL       0.2101
     41 H9         66.1998   38.6940   39.6979 H           1 MOL       0.2100
     42 H10        63.8097   37.5578   40.7683 H           1 MOL       0.2100
     43 H11        62.2487   38.6179   42.4480 H           1 MOL       0.2095
     44 H12        59.9533   44.1750   38.8841 H           1 MOL       0.0671
     45 H13        62.8415   43.5045   38.0685 H           1 MOL       0.0648
     46 H14        60.3023   41.9724   37.2608 H           1 MOL       0.0651
     47 H15        62.1925   43.6965   35.5592 H           1 MOL       0.0647
     48 H16        60.6751   43.3641   33.7091 H           1 MOL       0.0584
     49 H17        59.5493   42.4111   34.6985 H           1 MOL       0.0584
     50 H18        61.6842   45.7922   36.9161 H           1 MOL       0.0938
     51 H19        62.1231   44.6491   40.0416 H           1 MOL       0.2101
     52 H20        62.6828   42.4656   39.8256 H           1 MOL       0.2100
     53 H21        62.0625   41.7483   33.5965 H           1 MOL       0.2095
     54 H22        56.9921   49.4528   39.1502 H           1 MOL       0.0586
     55 H23        58.6792   49.6039   39.6328 H           1 MOL       0.0586
     56 H24        57.5725   47.1887   38.1601 H           1 MOL       0.0702
     57 H25        59.9404   47.0860   39.1811 H           1 MOL       0.0654
     58 H26        61.7391   47.9678   37.5137 H           1 MOL       0.0674
     59 H27        60.3450   48.5334   35.5983 H           1 MOL       0.0850
     60 H28        60.9958   50.0426   36.2431 H           1 MOL       0.0850
     61 H29        58.4764   47.7532   40.8399 H           1 MOL       0.2095
     62 H30        61.8988   49.8582   38.4871 H           1 MOL       0.2101
     63 H31        58.6629   50.1884   35.7815 H           1 MOL       0.2348
     64 H32        58.9453   50.4007   37.3990 H           1 MOL       0.2348
@<TRIPOS>BOND
     1     1     2   1
     2     6     1   1
     3     1     7   1
     4     2     3   1
     5     2     8   1
     6     4     3   1
     7     3     9   1
     8     4     5   1
     9    10     4   1
    10     5    11   1
    11     6    10   1
    12    20     6   1
    13    12    13   1
    14    17    12   1
    15    12    18   1
    16    13    14   1
    17    13    19   1
    18    15    14   1
    19    14    20   1
    20    15    16   1
    21    21    15   1
    22    16    22   1
    23    17    21   1
    24    30    17   1
    25    24    23   1
    26    23    28   1
    27    25    24   1
    28    24    29   1
    29    25    26   1
    30    25    30   1
    31    26    27   1
    32    26    31   1
    33    27    32   1
    34    29    32   1
    35     1    33   1
    36     2    34   1
    37     3    35   1
    38     4    36   1
    39     5    37   1
    40     5    38   1
    41     6    39   1
    42     7    40   1
    43     8    41   1
    44     9    42   1
    45    11    43   1
    46    12    44   1
    47    13    45   1
    48    14    46   1
    49    15    47   1
    50    16    48   1
    51    16    49   1
    52    17    50   1
    53    18    51   1
    54    19    52   1
    55    22    53   1
    56    23    54   1
    57    23    55   1
    58    24    56   1
    59    25    57   1
    60    26    58   1
    61    27    59   1
    62    27    60   1
    63    28    61   1
    64    31    62   1
    65    32    63   1
    66    32    64   1
@<TRIPOS>SUBSTRUCTURE
     1  MOL      1

