@<TRIPOS>MOLECULE
1w3l_ligand_071
    64    66
SMALL
GAST_HUCK
****
This file was generated by PARSER (from files_GN.cpp)

@<TRIPOS>ATOM
      1 C2         57.3125   51.4852   36.8929 C.3         1 MOL       0.1341
      2 C3         56.1075   52.3254   37.4154 C.3         1 MOL       0.1141
      3 C4         55.0873   51.4417   38.1852 C.3         1 MOL       0.1119
      4 C5         55.8135   50.5941   39.2709 C.3         1 MOL       0.1130
      5 C6         54.8766   49.5687   39.9639 C.3         1 MOL       0.0730
      6 C1         57.9156   50.6033   38.0254 C.3         1 MOL       0.1884
      7 O2         58.3200   52.3541   36.3656 O.3         1 MOL      -0.3841
      8 O3         55.4284   52.9664   36.3302 O.3         1 MOL      -0.3864
      9 O4         54.0894   52.2593   38.7981 O.3         1 MOL      -0.3865
     10 O5         56.8939   49.8320   38.6738 O.3         1 MOL      -0.3405
     11 O6         54.3443   48.6098   39.0424 O.3         1 MOL      -0.3924
     12 C2         60.0983   47.2166   40.2514 C.3         1 MOL       0.1341
     13 C3         59.1847   48.3171   39.6261 C.3         1 MOL       0.1144
     14 C4         59.7280   48.8472   38.2532 C.3         1 MOL       0.1184
     15 C5         60.1285   47.6334   37.3459 C.3         1 MOL       0.1134
     16 C6         60.9325   48.0492   36.0886 C.3         1 MOL       0.0730
     17 C1         60.3470   46.0890   39.2183 C.3         1 MOL       0.1884
     18 O2         59.4892   46.6930   41.4327 O.3         1 MOL      -0.3841
     19 O3         59.0528   49.3866   40.5632 O.3         1 MOL      -0.3864
     20 O4         58.8147   49.6453   37.4486 O.3         1 MOL      -0.3401
     21 O5         60.9459   46.6590   38.0447 O.3         1 MOL      -0.3405
     22 O6         61.0324   46.9640   35.1729 O.3         1 MOL      -0.3924
     23 C6         63.2389   44.3562   37.4620 C.3         1 MOL       0.0782
     24 C5         61.8547   43.7171   37.7334 C.3         1 MOL       0.1538
     25 C4         61.3984   43.7869   39.2296 C.3         1 MOL       0.1259
     26 C3         60.1550   42.8791   39.4610 C.3         1 MOL       0.1245
     27 C2         60.3791   41.4706   38.8562 C.3         1 MOL       0.0256
     28 O6         63.1583   45.7803   37.4040 O.3         1 MOL      -0.3922
     29 O5         61.9648   42.3304   37.3240 O.3         1 MOL      -0.3215
     30 O4         61.2377   45.1093   39.7981 O.3         1 MOL      -0.3398
     31 O3         59.8668   42.7771   40.8568 O.3         1 MOL      -0.3838
     32 N1         60.7962   41.6250   37.4471 N.4         1 MOL       0.3939
     33 H1         56.9618   50.8370   36.0844 H           1 MOL       0.0671
     34 H2         56.4797   53.1022   38.0920 H           1 MOL       0.0648
     35 H3         54.5962   50.7686   37.4706 H           1 MOL       0.0647
     36 H4         56.2176   51.2540   40.0481 H           1 MOL       0.0647
     37 H5         54.0388   50.0823   40.4506 H           1 MOL       0.0584
     38 H6         55.4334   49.0244   40.7380 H           1 MOL       0.0584
     39 H7         58.4481   51.2414   38.7397 H           1 MOL       0.0938
     40 H8         57.9682   52.6640   35.5023 H           1 MOL       0.2101
     41 H9         56.0689   53.6044   35.9533 H           1 MOL       0.2100
     42 H10        53.6460   52.7131   38.0512 H           1 MOL       0.2100
     43 H11        55.1298   48.1559   38.6698 H           1 MOL       0.2095
     44 H12        61.0556   47.6639   40.5318 H           1 MOL       0.0671
     45 H13        58.1796   47.9022   39.4583 H           1 MOL       0.0648
     46 H14        60.6207   49.4537   38.4512 H           1 MOL       0.0651
     47 H15        59.2097   47.1394   36.9996 H           1 MOL       0.0647
     48 H16        61.9454   48.3598   36.3699 H           1 MOL       0.0584
     49 H17        60.4390   48.8808   35.5826 H           1 MOL       0.0584
     50 H18        59.3847   45.6331   38.9715 H           1 MOL       0.0938
     51 H19        60.1486   46.0718   41.8083 H           1 MOL       0.2101
     52 H20        59.9597   49.7415   40.6970 H           1 MOL       0.2100
     53 H21        60.1233   46.8524   34.8192 H           1 MOL       0.2095
     54 H22        63.6218   44.0094   36.4993 H           1 MOL       0.0586
     55 H23        63.9581   44.0751   38.2410 H           1 MOL       0.0586
     56 H24        61.1144   44.2063   37.0957 H           1 MOL       0.0702
     57 H25        62.2105   43.3388   39.8147 H           1 MOL       0.0654
     58 H26        59.2754   43.3030   38.9665 H           1 MOL       0.0674
     59 H27        59.4547   40.8919   38.8973 H           1 MOL       0.0850
     60 H28        61.1506   40.9328   39.4138 H           1 MOL       0.0850
     61 H29        64.0433   46.0642   37.0873 H           1 MOL       0.2095
     62 H30        59.0267   42.2718   40.9115 H           1 MOL       0.2101
     63 H31        60.0568   42.1004   36.9287 H           1 MOL       0.2348
     64 H32        60.9297   40.6936   37.0447 H           1 MOL       0.2348
@<TRIPOS>BOND
     1     1     2   1
     2     6     1   1
     3     1     7   1
     4     2     3   1
     5     2     8   1
     6     4     3   1
     7     3     9   1
     8     4     5   1
     9    10     4   1
    10     5    11   1
    11     6    10   1
    12    20     6   1
    13    12    13   1
    14    17    12   1
    15    12    18   1
    16    13    14   1
    17    13    19   1
    18    15    14   1
    19    14    20   1
    20    15    16   1
    21    21    15   1
    22    16    22   1
    23    17    21   1
    24    30    17   1
    25    24    23   1
    26    23    28   1
    27    25    24   1
    28    24    29   1
    29    25    26   1
    30    25    30   1
    31    26    27   1
    32    26    31   1
    33    27    32   1
    34    29    32   1
    35     1    33   1
    36     2    34   1
    37     3    35   1
    38     4    36   1
    39     5    37   1
    40     5    38   1
    41     6    39   1
    42     7    40   1
    43     8    41   1
    44     9    42   1
    45    11    43   1
    46    12    44   1
    47    13    45   1
    48    14    46   1
    49    15    47   1
    50    16    48   1
    51    16    49   1
    52    17    50   1
    53    18    51   1
    54    19    52   1
    55    22    53   1
    56    23    54   1
    57    23    55   1
    58    24    56   1
    59    25    57   1
    60    26    58   1
    61    27    59   1
    62    27    60   1
    63    28    61   1
    64    31    62   1
    65    32    63   1
    66    32    64   1
@<TRIPOS>SUBSTRUCTURE
     1  MOL      1

