@<TRIPOS>MOLECULE
1w3l_ligand_040
    64    66
SMALL
GAST_HUCK
****
This file was generated by PARSER (from files_GN.cpp)

@<TRIPOS>ATOM
      1 C2         64.5722   36.9698   41.8086 C.3         1 MOL       0.1341
      2 C3         65.7350   37.0109   42.8391 C.3         1 MOL       0.1141
      3 C4         67.0762   36.5557   42.2052 C.3         1 MOL       0.1119
      4 C5         67.3393   37.3411   40.8872 C.3         1 MOL       0.1130
      5 C6         68.6055   36.8755   40.1279 C.3         1 MOL       0.0730
      6 C1         64.9643   37.7195   40.5060 C.3         1 MOL       0.1884
      7 O2         63.4016   37.5519   42.3867 O.3         1 MOL      -0.3841
      8 O3         65.4312   36.1769   43.9561 O.3         1 MOL      -0.3864
      9 O4         68.1437   36.7692   43.1212 O.3         1 MOL      -0.3865
     10 O5         66.2145   37.2129   39.9976 O.3         1 MOL      -0.3405
     11 O6         69.0116   35.5545   40.4811 O.3         1 MOL      -0.3924
     12 C2         62.1142   40.7305   38.6072 C.3         1 MOL       0.1341
     13 C3         62.6560   39.5831   39.4900 C.3         1 MOL       0.1144
     14 C4         63.4735   38.5619   38.6553 C.3         1 MOL       0.1184
     15 C5         64.5594   39.2770   37.7779 C.3         1 MOL       0.1134
     16 C6         65.1426   38.3698   36.6525 C.3         1 MOL       0.0730
     17 C1         63.2937   41.4178   37.8568 C.3         1 MOL       0.1884
     18 O2         61.4434   41.6538   39.4687 O.3         1 MOL      -0.3841
     19 O3         61.5581   38.9384   40.1328 O.3         1 MOL      -0.3864
     20 O4         63.9523   37.4828   39.5020 O.3         1 MOL      -0.3401
     21 O5         64.0249   40.4349   37.0970 O.3         1 MOL      -0.3405
     22 O6         65.2694   36.9858   36.9987 O.3         1 MOL      -0.3924
     23 C6         61.3974   42.9624   34.4461 C.3         1 MOL       0.0782
     24 C5         61.6508   43.9951   35.5707 C.3         1 MOL       0.1538
     25 C4         61.8857   43.3524   36.9744 C.3         1 MOL       0.1259
     26 C3         62.1475   44.5150   37.9891 C.3         1 MOL       0.1245
     27 C2         60.9909   45.5523   37.9036 C.3         1 MOL       0.0256
     28 O6         61.3899   43.6097   33.1781 O.3         1 MOL      -0.3922
     29 O5         60.5076   44.8798   35.6581 O.3         1 MOL      -0.3215
     30 O4         62.9575   42.3953   36.8499 O.3         1 MOL      -0.3398
     31 O3         62.2528   44.0789   39.3505 O.3         1 MOL      -0.3838
     32 N1         60.7392   45.9407   36.4993 N.4         1 MOL       0.3939
     33 H1         64.3413   35.9270   41.5640 H           1 MOL       0.0671
     34 H2         65.8451   38.0365   43.2072 H           1 MOL       0.0648
     35 H3         67.0160   35.4901   41.9875 H           1 MOL       0.0647
     36 H4         67.4864   38.4009   41.1240 H           1 MOL       0.0647
     37 H5         69.4378   37.5563   40.3357 H           1 MOL       0.0584
     38 H6         68.4120   36.8978   39.0533 H           1 MOL       0.0584
     39 H7         65.0597   38.7852   40.7397 H           1 MOL       0.0938
     40 H8         62.6882   36.8926   42.2411 H           1 MOL       0.2101
     41 H9         64.6977   36.6248   44.4309 H           1 MOL       0.2100
     42 H10        68.0722   36.0539   43.7869 H           1 MOL       0.2100
     43 H11        68.4154   34.9566   39.9804 H           1 MOL       0.2095
     44 H12        61.4023   40.3373   37.8816 H           1 MOL       0.0671
     45 H13        63.2838   40.0184   40.2718 H           1 MOL       0.0648
     46 H14        62.7679   38.0927   37.9616 H           1 MOL       0.0651
     47 H15        65.3812   39.6118   38.4179 H           1 MOL       0.0647
     48 H16        66.1378   38.7351   36.3811 H           1 MOL       0.0584
     49 H17        64.5143   38.4251   35.7561 H           1 MOL       0.0584
     50 H18        63.9724   41.8836   38.5682 H           1 MOL       0.0938
     51 H19        60.5894   41.2081   39.7259 H           1 MOL       0.2101
     52 H20        61.9549   38.3997   40.8471 H           1 MOL       0.2100
     53 H21        64.4457   36.5622   36.6683 H           1 MOL       0.2095
     54 H22        60.4525   42.4378   34.6021 H           1 MOL       0.0586
     55 H23        62.2016   42.2244   34.4356 H           1 MOL       0.0586
     56 H24        62.5384   44.5729   35.2824 H           1 MOL       0.0702
     57 H25        60.9579   42.8422   37.2439 H           1 MOL       0.0654
     58 H26        63.0854   45.0154   37.7303 H           1 MOL       0.0674
     59 H27        61.2472   46.4460   38.4796 H           1 MOL       0.0850
     60 H28        60.0758   45.1301   38.3177 H           1 MOL       0.0850
     61 H29        60.4745   43.5264   32.8437 H           1 MOL       0.2095
     62 H30        63.1125   43.6280   39.4240 H           1 MOL       0.2101
     63 H31        61.5454   46.4673   36.1478 H           1 MOL       0.2348
     64 H32        59.9203   46.5541   36.4745 H           1 MOL       0.2348
@<TRIPOS>BOND
     1     1     2   1
     2     6     1   1
     3     1     7   1
     4     2     3   1
     5     2     8   1
     6     4     3   1
     7     3     9   1
     8     4     5   1
     9    10     4   1
    10     5    11   1
    11     6    10   1
    12    20     6   1
    13    12    13   1
    14    17    12   1
    15    12    18   1
    16    13    14   1
    17    13    19   1
    18    15    14   1
    19    14    20   1
    20    15    16   1
    21    21    15   1
    22    16    22   1
    23    17    21   1
    24    30    17   1
    25    24    23   1
    26    23    28   1
    27    25    24   1
    28    24    29   1
    29    25    26   1
    30    25    30   1
    31    26    27   1
    32    26    31   1
    33    27    32   1
    34    29    32   1
    35     1    33   1
    36     2    34   1
    37     3    35   1
    38     4    36   1
    39     5    37   1
    40     5    38   1
    41     6    39   1
    42     7    40   1
    43     8    41   1
    44     9    42   1
    45    11    43   1
    46    12    44   1
    47    13    45   1
    48    14    46   1
    49    15    47   1
    50    16    48   1
    51    16    49   1
    52    17    50   1
    53    18    51   1
    54    19    52   1
    55    22    53   1
    56    23    54   1
    57    23    55   1
    58    24    56   1
    59    25    57   1
    60    26    58   1
    61    27    59   1
    62    27    60   1
    63    28    61   1
    64    31    62   1
    65    32    63   1
    66    32    64   1
@<TRIPOS>SUBSTRUCTURE
     1  MOL      1

