@<TRIPOS>MOLECULE
1w3l_ligand_070
    64    66
SMALL
GAST_HUCK
****
This file was generated by PARSER (from files_GN.cpp)

@<TRIPOS>ATOM
      1 C2         61.0732   42.5214   36.6232 C.3         1 MOL       0.1341
      2 C3         61.4668   42.5348   35.1069 C.3         1 MOL       0.1141
      3 C4         61.0371   43.8549   34.3936 C.3         1 MOL       0.1119
      4 C5         61.5069   45.0828   35.2234 C.3         1 MOL       0.1130
      5 C6         60.9161   46.4513   34.7858 C.3         1 MOL       0.0730
      6 C1         61.5849   43.8292   37.3109 C.3         1 MOL       0.1884
      7 O2         61.6144   41.3718   37.2723 O.3         1 MOL      -0.3841
      8 O3         60.8925   41.4173   34.4246 O.3         1 MOL      -0.3864
      9 O4         61.6094   43.9416   33.0919 O.3         1 MOL      -0.3865
     10 O5         61.0523   44.9372   36.5710 O.3         1 MOL      -0.3405
     11 O6         61.9050   47.4783   34.9032 O.3         1 MOL      -0.3924
     12 C2         61.2997   47.9268   39.2576 C.3         1 MOL       0.1341
     13 C3         61.3967   46.5932   38.4698 C.3         1 MOL       0.1144
     14 C4         61.2354   45.2899   39.3457 C.3         1 MOL       0.1184
     15 C5         60.0021   45.4671   40.2918 C.3         1 MOL       0.1134
     16 C6         59.8932   44.3422   41.3556 C.3         1 MOL       0.0730
     17 C1         60.0568   47.9086   40.1745 C.3         1 MOL       0.1884
     18 O2         61.2052   49.0364   38.3528 O.3         1 MOL      -0.3841
     19 O3         62.6687   46.5816   37.8152 O.3         1 MOL      -0.3864
     20 O4         61.0471   44.0214   38.6431 O.3         1 MOL      -0.3401
     21 O5         60.0227   46.7279   41.0041 O.3         1 MOL      -0.3405
     22 O6         61.1595   43.9722   41.8992 O.3         1 MOL      -0.3924
     23 C6         59.7072   51.7710   42.1075 C.3         1 MOL       0.0782
     24 C5         61.0014   50.9180   42.2099 C.3         1 MOL       0.1538
     25 C4         60.7645   49.3719   42.1344 C.3         1 MOL       0.1259
     26 C3         62.1362   48.6510   42.3190 C.3         1 MOL       0.1245
     27 C2         62.8781   49.2029   43.5689 C.3         1 MOL       0.0256
     28 O6         59.5408   52.2937   40.7830 O.3         1 MOL      -0.3922
     29 O5         61.6698   51.2397   43.4502 O.3         1 MOL      -0.3215
     30 O4         60.0739   49.1534   40.8840 O.3         1 MOL      -0.3398
     31 O3         62.0174   47.2426   42.5259 O.3         1 MOL      -0.3838
     32 N1         62.9209   50.6790   43.5145 N.4         1 MOL       0.3939
     33 H1         59.9819   42.4830   36.7125 H           1 MOL       0.0671
     34 H2         62.5597   42.4389   35.0345 H           1 MOL       0.0648
     35 H3         59.9480   43.8782   34.3024 H           1 MOL       0.0647
     36 H4         62.6049   45.1502   35.2000 H           1 MOL       0.0647
     37 H5         60.0663   46.7325   35.4112 H           1 MOL       0.0584
     38 H6         60.5562   46.4127   33.7558 H           1 MOL       0.0584
     39 H7         62.6831   43.8386   37.3405 H           1 MOL       0.0938
     40 H8         61.1238   40.6128   36.8911 H           1 MOL       0.2101
     41 H9         61.4669   41.2721   33.6376 H           1 MOL       0.2100
     42 H10        61.9717   43.0573   32.8819 H           1 MOL       0.2100
     43 H11        61.4015   48.2862   35.1361 H           1 MOL       0.2095
     44 H12        62.1984   48.0615   39.8659 H           1 MOL       0.0671
     45 H13        60.5908   46.6037   37.7189 H           1 MOL       0.0648
     46 H14        62.1341   45.1861   39.9584 H           1 MOL       0.0651
     47 H15        59.0975   45.4246   39.6755 H           1 MOL       0.0647
     48 H16        59.4338   43.4550   40.9148 H           1 MOL       0.0584
     49 H17        59.2473   44.6810   42.1733 H           1 MOL       0.0584
     50 H18        59.1623   47.9242   39.5444 H           1 MOL       0.0938
     51 H19        62.0978   49.4320   38.3100 H           1 MOL       0.2101
     52 H20        62.7300   47.4428   37.3463 H           1 MOL       0.2100
     53 H21        61.4936   44.7789   42.3519 H           1 MOL       0.2095
     54 H22        59.7705   52.6208   42.7932 H           1 MOL       0.0586
     55 H23        58.8284   51.1739   42.3787 H           1 MOL       0.0586
     56 H24        61.6499   51.2233   41.3762 H           1 MOL       0.0702
     57 H25        60.0990   49.0833   42.9534 H           1 MOL       0.0654
     58 H26        62.7637   48.8158   41.4336 H           1 MOL       0.0674
     59 H27        63.8986   48.8127   43.5864 H           1 MOL       0.0850
     60 H28        62.3737   48.8835   44.4847 H           1 MOL       0.0850
     61 H29        58.6704   52.7470   40.7978 H           1 MOL       0.2095
     62 H30        62.3632   46.8195   41.7115 H           1 MOL       0.2101
     63 H31        63.4716   50.9661   42.6982 H           1 MOL       0.2348
     64 H32        63.3893   51.0158   44.3584 H           1 MOL       0.2348
@<TRIPOS>BOND
     1     1     2   1
     2     6     1   1
     3     1     7   1
     4     2     3   1
     5     2     8   1
     6     4     3   1
     7     3     9   1
     8     4     5   1
     9    10     4   1
    10     5    11   1
    11     6    10   1
    12    20     6   1
    13    12    13   1
    14    17    12   1
    15    12    18   1
    16    13    14   1
    17    13    19   1
    18    15    14   1
    19    14    20   1
    20    15    16   1
    21    21    15   1
    22    16    22   1
    23    17    21   1
    24    30    17   1
    25    24    23   1
    26    23    28   1
    27    25    24   1
    28    24    29   1
    29    25    26   1
    30    25    30   1
    31    26    27   1
    32    26    31   1
    33    27    32   1
    34    29    32   1
    35     1    33   1
    36     2    34   1
    37     3    35   1
    38     4    36   1
    39     5    37   1
    40     5    38   1
    41     6    39   1
    42     7    40   1
    43     8    41   1
    44     9    42   1
    45    11    43   1
    46    12    44   1
    47    13    45   1
    48    14    46   1
    49    15    47   1
    50    16    48   1
    51    16    49   1
    52    17    50   1
    53    18    51   1
    54    19    52   1
    55    22    53   1
    56    23    54   1
    57    23    55   1
    58    24    56   1
    59    25    57   1
    60    26    58   1
    61    27    59   1
    62    27    60   1
    63    28    61   1
    64    31    62   1
    65    32    63   1
    66    32    64   1
@<TRIPOS>SUBSTRUCTURE
     1  MOL      1

