@<TRIPOS>MOLECULE
1w3l_ligand_007
    64    66
SMALL
GAST_HUCK
****
This file was generated by PARSER (from files_GN.cpp)

@<TRIPOS>ATOM
      1 C2         60.7335   43.5229   35.1170 C.3         1 MOL       0.1341
      2 C3         61.2982   42.0833   35.3027 C.3         1 MOL       0.1141
      3 C4         62.7300   42.0959   35.9139 C.3         1 MOL       0.1119
      4 C5         62.8242   43.0574   37.1426 C.3         1 MOL       0.1130
      5 C6         64.2618   43.3795   37.6187 C.3         1 MOL       0.0730
      6 C1         60.8320   44.2895   36.4631 C.3         1 MOL       0.1884
      7 O2         59.3882   43.5057   34.6500 O.3         1 MOL      -0.3841
      8 O3         61.2874   41.3789   34.0549 O.3         1 MOL      -0.3864
      9 O4         63.1022   40.7797   36.3210 O.3         1 MOL      -0.3865
     10 O5         62.2211   44.3203   36.8361 O.3         1 MOL      -0.3405
     11 O6         64.9142   44.3533   36.8025 O.3         1 MOL      -0.3924
     12 C2         61.3990   49.0968   37.4438 C.3         1 MOL       0.1341
     13 C3         60.9445   47.9611   36.4903 C.3         1 MOL       0.1144
     14 C4         60.7206   46.6434   37.2828 C.3         1 MOL       0.1184
     15 C5         59.6994   46.8961   38.4354 C.3         1 MOL       0.1134
     16 C6         59.4104   45.6705   39.3383 C.3         1 MOL       0.0730
     17 C1         60.4382   49.2201   38.6675 C.3         1 MOL       0.1884
     18 O2         61.4603   50.3481   36.7657 O.3         1 MOL      -0.3841
     19 O3         61.9439   47.7520   35.4919 O.3         1 MOL      -0.3864
     20 O4         60.3193   45.6312   36.3168 O.3         1 MOL      -0.3401
     21 O5         60.2069   47.9435   39.3018 O.3         1 MOL      -0.3405
     22 O6         60.5991   44.9816   39.7277 O.3         1 MOL      -0.3924
     23 C6         63.2406   48.7378   42.2799 C.3         1 MOL       0.0782
     24 C5         61.9476   49.4188   41.7189 C.3         1 MOL       0.1538
     25 C4         62.1029   50.1323   40.3290 C.3         1 MOL       0.1259
     26 C3         62.6259   51.5878   40.4802 C.3         1 MOL       0.1245
     27 C2         61.8902   52.3320   41.6253 C.3         1 MOL       0.0256
     28 O6         63.8369   49.4190   43.3844 O.3         1 MOL      -0.3922
     29 O5         61.3132   50.2918   42.6805 O.3         1 MOL      -0.3215
     30 O4         60.8364   50.2267   39.6274 O.3         1 MOL      -0.3398
     31 O3         64.0347   51.5894   40.6982 O.3         1 MOL      -0.3838
     32 N1         61.9195   51.5089   42.8455 N.4         1 MOL       0.3939
     33 H1         61.3309   44.0551   34.3689 H           1 MOL       0.0671
     34 H2         60.6244   41.5374   35.9736 H           1 MOL       0.0648
     35 H3         63.4333   42.4292   35.1482 H           1 MOL       0.0647
     36 H4         62.2846   42.5994   37.9789 H           1 MOL       0.0647
     37 H5         64.8750   42.4781   37.6668 H           1 MOL       0.0584
     38 H6         64.2107   43.8090   38.6218 H           1 MOL       0.0584
     39 H7         60.2466   43.7594   37.2194 H           1 MOL       0.0938
     40 H8         59.4046   42.9607   33.8319 H           1 MOL       0.2101
     41 H9         62.0641   41.7054   33.5476 H           1 MOL       0.2100
     42 H10        63.1082   40.2466   35.4974 H           1 MOL       0.2100
     43 H11        64.6224   44.1694   35.8870 H           1 MOL       0.2095
     44 H12        62.4004   48.8418   37.7696 H           1 MOL       0.0671
     45 H13        60.0162   48.2499   35.9897 H           1 MOL       0.0648
     46 H14        61.6864   46.4163   37.7492 H           1 MOL       0.0651
     47 H15        58.7439   47.2065   37.9960 H           1 MOL       0.0647
     48 H16        58.7543   44.9766   38.8152 H           1 MOL       0.0584
     49 H17        58.8897   45.9933   40.2393 H           1 MOL       0.0584
     50 H18        59.4725   49.5686   38.2838 H           1 MOL       0.0938
     51 H19        62.2092   50.2690   36.1413 H           1 MOL       0.2101
     52 H20        61.9157   48.5623   34.9490 H           1 MOL       0.2100
     53 H21        61.2873   45.6696   39.8538 H           1 MOL       0.2095
     54 H22        64.0059   48.6411   41.5059 H           1 MOL       0.0586
     55 H23        63.0008   47.7238   42.6328 H           1 MOL       0.0586
     56 H24        61.2430   48.6015   41.5697 H           1 MOL       0.0702
     57 H25        62.8239   49.5885   39.7410 H           1 MOL       0.0654
     58 H26        62.4604   52.1426   39.5541 H           1 MOL       0.0674
     59 H27        60.8496   52.5268   41.3391 H           1 MOL       0.0850
     60 H28        62.3816   53.2858   41.8172 H           1 MOL       0.0850
     61 H29        63.2060   49.2935   44.1251 H           1 MOL       0.2095
     62 H30        64.3874   51.2658   39.8432 H           1 MOL       0.2101
     63 H31        61.4356   52.0157   43.5890 H           1 MOL       0.2348
     64 H32        62.8933   51.3847   43.1295 H           1 MOL       0.2348
@<TRIPOS>BOND
     1     1     2   1
     2     6     1   1
     3     1     7   1
     4     2     3   1
     5     2     8   1
     6     4     3   1
     7     3     9   1
     8     4     5   1
     9    10     4   1
    10     5    11   1
    11     6    10   1
    12    20     6   1
    13    12    13   1
    14    17    12   1
    15    12    18   1
    16    13    14   1
    17    13    19   1
    18    15    14   1
    19    14    20   1
    20    15    16   1
    21    21    15   1
    22    16    22   1
    23    17    21   1
    24    30    17   1
    25    24    23   1
    26    23    28   1
    27    25    24   1
    28    24    29   1
    29    25    26   1
    30    25    30   1
    31    26    27   1
    32    26    31   1
    33    27    32   1
    34    29    32   1
    35     1    33   1
    36     2    34   1
    37     3    35   1
    38     4    36   1
    39     5    37   1
    40     5    38   1
    41     6    39   1
    42     7    40   1
    43     8    41   1
    44     9    42   1
    45    11    43   1
    46    12    44   1
    47    13    45   1
    48    14    46   1
    49    15    47   1
    50    16    48   1
    51    16    49   1
    52    17    50   1
    53    18    51   1
    54    19    52   1
    55    22    53   1
    56    23    54   1
    57    23    55   1
    58    24    56   1
    59    25    57   1
    60    26    58   1
    61    27    59   1
    62    27    60   1
    63    28    61   1
    64    31    62   1
    65    32    63   1
    66    32    64   1
@<TRIPOS>SUBSTRUCTURE
     1  MOL      1

