@<TRIPOS>MOLECULE
1w3l_ligand_082
    64    66
SMALL
GAST_HUCK
****
This file was generated by PARSER (from files_GN.cpp)

@<TRIPOS>ATOM
      1 C2         55.4938   40.0350   41.3404 C.3         1 MOL       0.1341
      2 C3         53.9932   39.9582   40.9361 C.3         1 MOL       0.1141
      3 C4         53.1753   41.1097   41.5887 C.3         1 MOL       0.1119
      4 C5         53.8513   42.4867   41.3114 C.3         1 MOL       0.1130
      5 C6         53.1758   43.6539   42.0800 C.3         1 MOL       0.0730
      6 C1         56.0436   41.4554   41.0467 C.3         1 MOL       0.1884
      7 O2         56.2638   39.0691   40.6212 O.3         1 MOL      -0.3841
      8 O3         53.4513   38.6968   41.3117 O.3         1 MOL      -0.3864
      9 O4         51.8408   41.1397   41.0918 O.3         1 MOL      -0.3865
     10 O5         55.2376   42.4583   41.7052 O.3         1 MOL      -0.3405
     11 O6         53.9165   44.8727   41.9344 O.3         1 MOL      -0.3924
     12 C2         60.4463   41.6939   39.3046 C.3         1 MOL       0.1341
     13 C3         59.2648   41.0935   40.1108 C.3         1 MOL       0.1144
     14 C4         58.4501   42.2058   40.8208 C.3         1 MOL       0.1184
     15 C5         58.0634   43.3565   39.8196 C.3         1 MOL       0.1134
     16 C6         57.4829   44.6059   40.5422 C.3         1 MOL       0.0730
     17 C1         59.9303   42.7809   38.3215 C.3         1 MOL       0.1884
     18 O2         61.1473   40.6416   38.6525 O.3         1 MOL      -0.3841
     19 O3         59.7347   40.1510   41.0751 O.3         1 MOL      -0.3864
     20 O4         57.3724   41.6166   41.5965 O.3         1 MOL      -0.3401
     21 O5         59.2190   43.7914   39.0596 O.3         1 MOL      -0.3405
     22 O6         58.5103   45.4683   41.0541 O.3         1 MOL      -0.3924
     23 C6         63.9524   43.3581   37.6427 C.3         1 MOL       0.0782
     24 C5         63.0305   43.7277   36.4553 C.3         1 MOL       0.1538
     25 C4         61.6465   43.0140   36.5108 C.3         1 MOL       0.1259
     26 C3         60.8564   43.3001   35.1965 C.3         1 MOL       0.1245
     27 C2         61.7598   43.0479   33.9606 C.3         1 MOL       0.0256
     28 O6         64.2749   41.9694   37.6312 O.3         1 MOL      -0.3922
     29 O5         63.7312   43.3983   35.2446 O.3         1 MOL      -0.3215
     30 O4         60.9821   43.5191   37.6875 O.3         1 MOL      -0.3398
     31 O3         59.6909   42.4833   35.0864 O.3         1 MOL      -0.3838
     32 N1         63.0309   43.7765   34.1265 N.4         1 MOL       0.3939
     33 H1         55.5915   39.8301   42.4105 H           1 MOL       0.0671
     34 H2         53.9239   40.0410   39.8448 H           1 MOL       0.0648
     35 H3         53.1278   40.9522   42.6680 H           1 MOL       0.0647
     36 H4         53.7903   42.7206   40.2403 H           1 MOL       0.0647
     37 H5         53.1152   43.4210   43.1503 H           1 MOL       0.0584
     38 H6         52.1573   43.8205   41.7037 H           1 MOL       0.0584
     39 H7         56.0379   41.6097   39.9587 H           1 MOL       0.0938
     40 H8         55.7272   38.2490   40.6210 H           1 MOL       0.2101
     41 H9         52.7259   38.5169   40.6755 H           1 MOL       0.2100
     42 H10        51.4077   40.3323   41.4348 H           1 MOL       0.2100
     43 H11        53.8130   45.1092   40.9883 H           1 MOL       0.2095
     44 H12        61.1494   42.1474   40.0089 H           1 MOL       0.0671
     45 H13        58.6119   40.5522   39.4230 H           1 MOL       0.0648
     46 H14        59.1153   42.6605   41.5615 H           1 MOL       0.0651
     47 H15        57.3020   42.9890   39.1164 H           1 MOL       0.0647
     48 H16        56.8436   44.3068   41.3829 H           1 MOL       0.0584
     49 H17        56.8706   45.1850   39.8336 H           1 MOL       0.0584
     50 H18        59.2700   42.3355   37.5784 H           1 MOL       0.0938
     51 H19        60.6184   40.3656   37.8718 H           1 MOL       0.2101
     52 H20        60.3386   40.6527   41.6624 H           1 MOL       0.2100
     53 H21        58.0182   46.2089   41.4623 H           1 MOL       0.2095
     54 H22        63.4583   43.6063   38.5861 H           1 MOL       0.0586
     55 H23        64.8803   43.9321   37.5832 H           1 MOL       0.0586
     56 H24        62.8784   44.8117   36.4860 H           1 MOL       0.0702
     57 H25        61.8176   41.9390   36.5681 H           1 MOL       0.0654
     58 H26        60.5397   44.3476   35.1929 H           1 MOL       0.0674
     59 H27        61.2679   43.4052   33.0507 H           1 MOL       0.0850
     60 H28        61.9653   41.9792   33.8505 H           1 MOL       0.0850
     61 H29        64.5337   41.7746   38.5555 H           1 MOL       0.2095
     62 H30        59.3705   42.6098   34.1640 H           1 MOL       0.2101
     63 H31        62.8316   44.7748   34.1980 H           1 MOL       0.2348
     64 H32        63.6165   43.6127   33.3066 H           1 MOL       0.2348
@<TRIPOS>BOND
     1     1     2   1
     2     6     1   1
     3     1     7   1
     4     2     3   1
     5     2     8   1
     6     4     3   1
     7     3     9   1
     8     4     5   1
     9    10     4   1
    10     5    11   1
    11     6    10   1
    12    20     6   1
    13    12    13   1
    14    17    12   1
    15    12    18   1
    16    13    14   1
    17    13    19   1
    18    15    14   1
    19    14    20   1
    20    15    16   1
    21    21    15   1
    22    16    22   1
    23    17    21   1
    24    30    17   1
    25    24    23   1
    26    23    28   1
    27    25    24   1
    28    24    29   1
    29    25    26   1
    30    25    30   1
    31    26    27   1
    32    26    31   1
    33    27    32   1
    34    29    32   1
    35     1    33   1
    36     2    34   1
    37     3    35   1
    38     4    36   1
    39     5    37   1
    40     5    38   1
    41     6    39   1
    42     7    40   1
    43     8    41   1
    44     9    42   1
    45    11    43   1
    46    12    44   1
    47    13    45   1
    48    14    46   1
    49    15    47   1
    50    16    48   1
    51    16    49   1
    52    17    50   1
    53    18    51   1
    54    19    52   1
    55    22    53   1
    56    23    54   1
    57    23    55   1
    58    24    56   1
    59    25    57   1
    60    26    58   1
    61    27    59   1
    62    27    60   1
    63    28    61   1
    64    31    62   1
    65    32    63   1
    66    32    64   1
@<TRIPOS>SUBSTRUCTURE
     1  MOL      1

