@<TRIPOS>MOLECULE
1w3l_ligand_067
    64    66
SMALL
GAST_HUCK
****
This file was generated by PARSER (from files_GN.cpp)

@<TRIPOS>ATOM
      1 C2         62.5659   41.6558   35.4782 C.3         1 MOL       0.1341
      2 C3         61.5962   42.4441   34.5565 C.3         1 MOL       0.1141
      3 C4         60.4327   43.0674   35.3734 C.3         1 MOL       0.1119
      4 C5         60.9952   43.8957   36.5666 C.3         1 MOL       0.1130
      5 C6         59.8894   44.4982   37.4699 C.3         1 MOL       0.0730
      6 C1         62.9710   42.4770   36.7383 C.3         1 MOL       0.1884
      7 O2         63.7503   41.2763   34.7825 O.3         1 MOL      -0.3841
      8 O3         61.0438   41.5698   33.5741 O.3         1 MOL      -0.3864
      9 O4         59.6370   43.8943   34.5276 O.3         1 MOL      -0.3865
     10 O5         61.8234   43.0462   37.3959 O.3         1 MOL      -0.3405
     11 O6         60.4616   45.3111   38.4928 O.3         1 MOL      -0.3924
     12 C2         63.9295   38.1460   38.9423 C.3         1 MOL       0.1341
     13 C3         64.3183   39.4329   38.1645 C.3         1 MOL       0.1144
     14 C4         63.2514   40.5569   38.3560 C.3         1 MOL       0.1184
     15 C5         62.9892   40.7768   39.8871 C.3         1 MOL       0.1134
     16 C6         61.8475   41.7680   40.2153 C.3         1 MOL       0.0730
     17 C1         63.6957   38.5183   40.4308 C.3         1 MOL       0.1884
     18 O2         64.9424   37.1450   38.8229 O.3         1 MOL      -0.3841
     19 O3         64.5350   39.1443   36.7808 O.3         1 MOL      -0.3864
     20 O4         63.7771   41.7270   37.6712 O.3         1 MOL      -0.3401
     21 O5         62.6578   39.5163   40.5178 O.3         1 MOL      -0.3405
     22 O6         60.6259   41.4032   39.5795 O.3         1 MOL      -0.3924
     23 C6         63.0885   38.8069   44.8528 C.3         1 MOL       0.0782
     24 C5         63.7205   38.5310   43.4555 C.3         1 MOL       0.1538
     25 C4         63.0858   37.3632   42.6138 C.3         1 MOL       0.1259
     26 C3         63.6224   35.9834   43.1071 C.3         1 MOL       0.1245
     27 C2         65.1704   36.0275   43.1858 C.3         1 MOL       0.0256
     28 O6         63.4121   37.8406   45.8477 O.3         1 MOL      -0.3922
     29 O5         65.1577   38.3938   43.5178 O.3         1 MOL      -0.3215
     30 O4         63.3353   37.3474   41.1806 O.3         1 MOL      -0.3398
     31 O3         63.0983   35.6123   44.3804 O.3         1 MOL      -0.3838
     32 N1         65.6012   37.1828   44.0018 N.4         1 MOL       0.3939
     33 H1         62.0509   40.7488   35.7939 H           1 MOL       0.0671
     34 H2         62.1433   43.2406   34.0443 H           1 MOL       0.0648
     35 H3         59.7958   42.2673   35.7665 H           1 MOL       0.0647
     36 H4         61.5933   44.7298   36.1764 H           1 MOL       0.0647
     37 H5         59.3076   43.7006   37.9378 H           1 MOL       0.0584
     38 H6         59.2187   45.1250   36.8785 H           1 MOL       0.0584
     39 H7         63.6144   43.2988   36.4120 H           1 MOL       0.0938
     40 H8         63.4923   40.4765   34.2832 H           1 MOL       0.2101
     41 H9         61.7884   41.3598   32.9740 H           1 MOL       0.2100
     42 H10        59.3177   43.3052   33.8125 H           1 MOL       0.2100
     43 H11        61.0532   44.7135   38.9969 H           1 MOL       0.2095
     44 H12        63.0045   37.7352   38.5247 H           1 MOL       0.0671
     45 H13        65.2771   39.7858   38.5538 H           1 MOL       0.0648
     46 H14        62.3180   40.1982   37.9110 H           1 MOL       0.0651
     47 H15        63.8982   41.1713   40.3457 H           1 MOL       0.0647
     48 H16        62.1246   42.7770   39.9172 H           1 MOL       0.0584
     49 H17        61.6780   41.7762   41.2913 H           1 MOL       0.0584
     50 H18        64.6400   38.8951   40.8368 H           1 MOL       0.0938
     51 H19        65.7539   37.5483   39.1981 H           1 MOL       0.2101
     52 H20        63.6581   38.9523   36.3893 H           1 MOL       0.2100
     53 H21        59.9737   42.0783   39.8655 H           1 MOL       0.2095
     54 H22        62.0011   38.8609   44.7579 H           1 MOL       0.0586
     55 H23        63.4442   39.7761   45.2148 H           1 MOL       0.0586
     56 H24        63.5458   39.4616   42.9143 H           1 MOL       0.0702
     57 H25        62.0006   37.3904   42.7352 H           1 MOL       0.0654
     58 H26        63.3221   35.1981   42.4077 H           1 MOL       0.0674
     59 H27        65.6012   36.1150   42.1838 H           1 MOL       0.0850
     60 H28        65.5488   35.1075   43.6404 H           1 MOL       0.0850
     61 H29        62.9344   38.1386   46.6539 H           1 MOL       0.2095
     62 H30        62.1244   35.6115   44.2776 H           1 MOL       0.2101
     63 H31        66.6258   37.2007   44.0182 H           1 MOL       0.2348
     64 H32        65.2688   37.0533   44.9607 H           1 MOL       0.2348
@<TRIPOS>BOND
     1     1     2   1
     2     6     1   1
     3     1     7   1
     4     2     3   1
     5     2     8   1
     6     4     3   1
     7     3     9   1
     8     4     5   1
     9    10     4   1
    10     5    11   1
    11     6    10   1
    12    20     6   1
    13    12    13   1
    14    17    12   1
    15    12    18   1
    16    13    14   1
    17    13    19   1
    18    15    14   1
    19    14    20   1
    20    15    16   1
    21    21    15   1
    22    16    22   1
    23    17    21   1
    24    30    17   1
    25    24    23   1
    26    23    28   1
    27    25    24   1
    28    24    29   1
    29    25    26   1
    30    25    30   1
    31    26    27   1
    32    26    31   1
    33    27    32   1
    34    29    32   1
    35     1    33   1
    36     2    34   1
    37     3    35   1
    38     4    36   1
    39     5    37   1
    40     5    38   1
    41     6    39   1
    42     7    40   1
    43     8    41   1
    44     9    42   1
    45    11    43   1
    46    12    44   1
    47    13    45   1
    48    14    46   1
    49    15    47   1
    50    16    48   1
    51    16    49   1
    52    17    50   1
    53    18    51   1
    54    19    52   1
    55    22    53   1
    56    23    54   1
    57    23    55   1
    58    24    56   1
    59    25    57   1
    60    26    58   1
    61    27    59   1
    62    27    60   1
    63    28    61   1
    64    31    62   1
    65    32    63   1
    66    32    64   1
@<TRIPOS>SUBSTRUCTURE
     1  MOL      1

