@<TRIPOS>MOLECULE
1w3l_ligand_047
    64    66
SMALL
GAST_HUCK
****
This file was generated by PARSER (from files_GN.cpp)

@<TRIPOS>ATOM
      1 C2         61.4328   42.0510   35.3562 C.3         1 MOL       0.1341
      2 C3         60.9950   43.4829   34.9534 C.3         1 MOL       0.1141
      3 C4         61.1511   44.4567   36.1471 C.3         1 MOL       0.1119
      4 C5         62.6252   44.4161   36.6620 C.3         1 MOL       0.1130
      5 C6         62.8467   45.3252   37.8988 C.3         1 MOL       0.0730
      6 C1         62.8537   42.0507   36.0101 C.3         1 MOL       0.1884
      7 O2         61.3979   41.1998   34.2066 O.3         1 MOL      -0.3841
      8 O3         59.6432   43.5088   34.5190 O.3         1 MOL      -0.3864
      9 O4         60.7848   45.7776   35.7486 O.3         1 MOL      -0.3865
     10 O5         63.0028   43.0661   37.0374 O.3         1 MOL      -0.3405
     11 O6         62.6210   44.6217   39.1249 O.3         1 MOL      -0.3924
     12 C2         62.7769   39.9860   40.2511 C.3         1 MOL       0.1341
     13 C3         62.3486   40.5105   38.8440 C.3         1 MOL       0.1144
     14 C4         63.5095   40.3495   37.8184 C.3         1 MOL       0.1184
     15 C5         63.9146   38.8398   37.8066 C.3         1 MOL       0.1134
     16 C6         65.0575   38.4759   36.8225 C.3         1 MOL       0.0730
     17 C1         63.3209   38.5288   40.1632 C.3         1 MOL       0.1884
     18 O2         61.6717   40.0489   41.1649 O.3         1 MOL      -0.3841
     19 O3         61.9322   41.8628   39.0003 O.3         1 MOL      -0.3864
     20 O4         63.1583   40.7138   36.4656 O.3         1 MOL      -0.3401
     21 O5         64.3172   38.4045   39.1239 O.3         1 MOL      -0.3405
     22 O6         66.3234   38.2996   37.4678 O.3         1 MOL      -0.3924
     23 C6         63.3035   34.8965   43.1822 C.3         1 MOL       0.0782
     24 C5         63.5082   36.4287   43.0134 C.3         1 MOL       0.1538
     25 C4         64.2857   36.8693   41.7311 C.3         1 MOL       0.1259
     26 C3         65.8252   36.8530   41.9400 C.3         1 MOL       0.1245
     27 C2         66.2039   37.4942   43.3018 C.3         1 MOL       0.0256
     28 O6         64.5120   34.1563   43.2826 O.3         1 MOL      -0.3922
     29 O5         64.0598   37.0387   44.2032 O.3         1 MOL      -0.3215
     30 O4         63.9049   38.2305   41.4487 O.3         1 MOL      -0.3398
     31 O3         66.3165   35.5108   41.8982 O.3         1 MOL      -0.3838
     32 N1         65.4114   36.8771   44.3784 N.4         1 MOL       0.3939
     33 H1         60.7232   41.6568   36.0851 H           1 MOL       0.0671
     34 H2         61.6189   43.8343   34.1280 H           1 MOL       0.0648
     35 H3         60.4855   44.1523   36.9606 H           1 MOL       0.0647
     36 H4         63.2899   44.7808   35.8668 H           1 MOL       0.0647
     37 H5         62.1749   46.1916   37.8649 H           1 MOL       0.0584
     38 H6         63.8776   45.7040   37.8895 H           1 MOL       0.0584
     39 H7         63.5901   42.2693   35.2274 H           1 MOL       0.0938
     40 H8         62.1273   41.5060   33.6189 H           1 MOL       0.2101
     41 H9         59.6180   42.9968   33.6848 H           1 MOL       0.2100
     42 H10        61.4347   46.0291   35.0586 H           1 MOL       0.2100
     43 H11        63.3873   44.0159   39.2120 H           1 MOL       0.2095
     44 H12        63.5762   40.6326   40.6414 H           1 MOL       0.0671
     45 H13        61.4765   39.9377   38.5102 H           1 MOL       0.0648
     46 H14        64.3678   40.9437   38.1317 H           1 MOL       0.0651
     47 H15        63.0485   38.2554   37.4863 H           1 MOL       0.0647
     48 H16        65.1725   39.2357   36.0402 H           1 MOL       0.0584
     49 H17        64.8238   37.5251   36.3264 H           1 MOL       0.0584
     50 H18        62.4717   37.8589   39.9694 H           1 MOL       0.0938
     51 H19        62.0670   39.8811   42.0501 H           1 MOL       0.2101
     52 H20        62.7114   42.3092   39.3955 H           1 MOL       0.2100
     53 H21        66.9464   38.0882   36.7320 H           1 MOL       0.2095
     54 H22        62.7496   34.5076   42.3210 H           1 MOL       0.0586
     55 H23        62.7040   34.7031   44.0787 H           1 MOL       0.0586
     56 H24        62.4964   36.8359   42.9272 H           1 MOL       0.0702
     57 H25        64.0377   36.2015   40.9016 H           1 MOL       0.0654
     58 H26        66.3164   37.4101   41.1284 H           1 MOL       0.0674
     59 H27        66.0078   38.5719   43.2775 H           1 MOL       0.0850
     60 H28        67.2711   37.3451   43.5030 H           1 MOL       0.0850
     61 H29        64.6007   33.9305   44.2357 H           1 MOL       0.2095
     62 H30        67.2112   35.5717   41.4971 H           1 MOL       0.2101
     63 H31        65.6793   37.3074   45.2628 H           1 MOL       0.2348
     64 H32        65.6407   35.8881   44.4243 H           1 MOL       0.2348
@<TRIPOS>BOND
     1     1     2   1
     2     6     1   1
     3     1     7   1
     4     2     3   1
     5     2     8   1
     6     4     3   1
     7     3     9   1
     8     4     5   1
     9    10     4   1
    10     5    11   1
    11     6    10   1
    12    20     6   1
    13    12    13   1
    14    17    12   1
    15    12    18   1
    16    13    14   1
    17    13    19   1
    18    15    14   1
    19    14    20   1
    20    15    16   1
    21    21    15   1
    22    16    22   1
    23    17    21   1
    24    30    17   1
    25    24    23   1
    26    23    28   1
    27    25    24   1
    28    24    29   1
    29    25    26   1
    30    25    30   1
    31    26    27   1
    32    26    31   1
    33    27    32   1
    34    29    32   1
    35     1    33   1
    36     2    34   1
    37     3    35   1
    38     4    36   1
    39     5    37   1
    40     5    38   1
    41     6    39   1
    42     7    40   1
    43     8    41   1
    44     9    42   1
    45    11    43   1
    46    12    44   1
    47    13    45   1
    48    14    46   1
    49    15    47   1
    50    16    48   1
    51    16    49   1
    52    17    50   1
    53    18    51   1
    54    19    52   1
    55    22    53   1
    56    23    54   1
    57    23    55   1
    58    24    56   1
    59    25    57   1
    60    26    58   1
    61    27    59   1
    62    27    60   1
    63    28    61   1
    64    31    62   1
    65    32    63   1
    66    32    64   1
@<TRIPOS>SUBSTRUCTURE
     1  MOL      1

