@<TRIPOS>MOLECULE
1w3l_ligand_006
    64    66
SMALL
GAST_HUCK
****
This file was generated by PARSER (from files_GN.cpp)

@<TRIPOS>ATOM
      1 C2         61.6854   48.9074   41.6301 C.3         1 MOL       0.1341
      2 C3         61.9101   49.5772   43.0169 C.3         1 MOL       0.1141
      3 C4         62.0013   51.1215   42.8864 C.3         1 MOL       0.1119
      4 C5         60.7935   51.6806   42.0700 C.3         1 MOL       0.1130
      5 C6         60.9801   53.1821   41.7357 C.3         1 MOL       0.0730
      6 C1         60.4639   49.5338   40.8887 C.3         1 MOL       0.1884
      7 O2         61.4898   47.5116   41.8334 O.3         1 MOL      -0.3841
      8 O3         63.1123   49.0866   43.6196 O.3         1 MOL      -0.3864
      9 O4         62.0781   51.7224   44.1844 O.3         1 MOL      -0.3865
     10 O5         60.6285   50.9682   40.8241 O.3         1 MOL      -0.3405
     11 O6         60.2210   53.5451   40.5861 O.3         1 MOL      -0.3924
     12 C2         59.1820   45.5895   38.5464 C.3         1 MOL       0.1341
     13 C3         59.0745   46.9816   39.2538 C.3         1 MOL       0.1144
     14 C4         60.3400   47.8545   38.9720 C.3         1 MOL       0.1184
     15 C5         60.5161   47.9614   37.4190 C.3         1 MOL       0.1134
     16 C6         61.8078   48.7036   36.9886 C.3         1 MOL       0.0730
     17 C1         59.4919   45.7757   37.0288 C.3         1 MOL       0.1884
     18 O2         57.9640   44.8513   38.6939 O.3         1 MOL      -0.3841
     19 O3         58.8812   46.7666   40.6523 O.3         1 MOL      -0.3864
     20 O4         60.2938   49.1990   39.4988 O.3         1 MOL      -0.3401
     21 O5         60.6315   46.6422   36.8395 O.3         1 MOL      -0.3405
     22 O6         61.5449   50.0752   36.7262 O.3         1 MOL      -0.3924
     23 C6         63.5199   44.3443   35.5659 C.3         1 MOL       0.0782
     24 C5         62.0037   44.4949   35.2487 C.3         1 MOL       0.1538
     25 C4         61.0406   43.9160   36.3534 C.3         1 MOL       0.1259
     26 C3         60.8206   42.3833   36.1687 C.3         1 MOL       0.1245
     27 C2         60.6096   42.0162   34.6793 C.3         1 MOL       0.0256
     28 O6         63.9871   45.4573   36.3325 O.3         1 MOL      -0.3922
     29 O5         61.6761   43.9771   33.9388 O.3         1 MOL      -0.3215
     30 O4         59.7276   44.5434   36.3022 O.3         1 MOL      -0.3398
     31 O3         61.9265   41.6474   36.6940 O.3         1 MOL      -0.3838
     32 N1         61.6873   42.6131   33.8719 N.4         1 MOL       0.3939
     33 H1         62.5756   49.0528   41.0112 H           1 MOL       0.0671
     34 H2         61.0754   49.3233   43.6814 H           1 MOL       0.0648
     35 H3         62.9325   51.3575   42.3633 H           1 MOL       0.0647
     36 H4         59.8781   51.5724   42.6592 H           1 MOL       0.0647
     37 H5         62.0313   53.4023   41.5249 H           1 MOL       0.0584
     38 H6         60.6580   53.7961   42.5795 H           1 MOL       0.0584
     39 H7         59.5435   49.3000   41.4235 H           1 MOL       0.0938
     40 H8         62.2582   47.0809   41.4039 H           1 MOL       0.2101
     41 H9         62.9736   48.1254   43.7514 H           1 MOL       0.2100
     42 H10        61.2304   51.5071   44.6280 H           1 MOL       0.2100
     43 H11        59.9990   54.4920   40.7132 H           1 MOL       0.2095
     44 H12        59.9932   45.0158   39.0114 H           1 MOL       0.0671
     45 H13        58.1873   47.4993   38.8727 H           1 MOL       0.0648
     46 H14        61.2203   47.3324   39.3659 H           1 MOL       0.0651
     47 H15        59.6560   48.4851   36.9740 H           1 MOL       0.0647
     48 H16        62.2052   48.2578   36.0657 H           1 MOL       0.0584
     49 H17        62.5814   48.6227   37.7637 H           1 MOL       0.0584
     50 H18        58.6081   46.2326   36.5647 H           1 MOL       0.0938
     51 H19        57.9066   44.6491   39.6535 H           1 MOL       0.2101
     52 H20        58.3162   47.5144   40.9497 H           1 MOL       0.2100
     53 H21        62.2933   50.3346   36.1538 H           1 MOL       0.2095
     54 H22        64.0806   44.3191   34.6294 H           1 MOL       0.0586
     55 H23        63.7245   43.4227   36.1065 H           1 MOL       0.0586
     56 H24        61.8189   45.5758   35.1598 H           1 MOL       0.0702
     57 H25        61.4857   44.0752   37.3401 H           1 MOL       0.0654
     58 H26        59.9371   42.0689   36.7376 H           1 MOL       0.0674
     59 H27        59.6443   42.3950   34.3318 H           1 MOL       0.0850
     60 H28        60.6238   40.9360   34.5505 H           1 MOL       0.0850
     61 H29        64.9585   45.3102   36.4213 H           1 MOL       0.2095
     62 H30        61.6996   40.6978   36.5523 H           1 MOL       0.2101
     63 H31        61.5911   42.3370   32.8954 H           1 MOL       0.2348
     64 H32        62.5999   42.2793   34.1817 H           1 MOL       0.2348
@<TRIPOS>BOND
     1     1     2   1
     2     6     1   1
     3     1     7   1
     4     2     3   1
     5     2     8   1
     6     4     3   1
     7     3     9   1
     8     4     5   1
     9    10     4   1
    10     5    11   1
    11     6    10   1
    12    20     6   1
    13    12    13   1
    14    17    12   1
    15    12    18   1
    16    13    14   1
    17    13    19   1
    18    15    14   1
    19    14    20   1
    20    15    16   1
    21    21    15   1
    22    16    22   1
    23    17    21   1
    24    30    17   1
    25    24    23   1
    26    23    28   1
    27    25    24   1
    28    24    29   1
    29    25    26   1
    30    25    30   1
    31    26    27   1
    32    26    31   1
    33    27    32   1
    34    29    32   1
    35     1    33   1
    36     2    34   1
    37     3    35   1
    38     4    36   1
    39     5    37   1
    40     5    38   1
    41     6    39   1
    42     7    40   1
    43     8    41   1
    44     9    42   1
    45    11    43   1
    46    12    44   1
    47    13    45   1
    48    14    46   1
    49    15    47   1
    50    16    48   1
    51    16    49   1
    52    17    50   1
    53    18    51   1
    54    19    52   1
    55    22    53   1
    56    23    54   1
    57    23    55   1
    58    24    56   1
    59    25    57   1
    60    26    58   1
    61    27    59   1
    62    27    60   1
    63    28    61   1
    64    31    62   1
    65    32    63   1
    66    32    64   1
@<TRIPOS>SUBSTRUCTURE
     1  MOL      1

