@<TRIPOS>MOLECULE
1w3l_ligand_077
    64    66
SMALL
GAST_HUCK
****
This file was generated by PARSER (from files_GN.cpp)

@<TRIPOS>ATOM
      1 C2         58.2409   50.3573   39.5528 C.3         1 MOL       0.1341
      2 C3         56.8105   50.5259   38.9741 C.3         1 MOL       0.1141
      3 C4         56.4191   49.3282   38.0585 C.3         1 MOL       0.1119
      4 C5         56.6590   47.9831   38.8151 C.3         1 MOL       0.1130
      5 C6         56.4246   46.7222   37.9408 C.3         1 MOL       0.0730
      6 C1         58.4118   48.9665   40.2237 C.3         1 MOL       0.1884
      7 O2         58.5046   51.4005   40.4884 O.3         1 MOL      -0.3841
      8 O3         56.7447   51.7463   38.2323 O.3         1 MOL      -0.3864
      9 O4         55.0587   49.4405   37.6374 O.3         1 MOL      -0.3865
     10 O5         58.0205   47.9219   39.2992 O.3         1 MOL      -0.3405
     11 O6         57.2437   46.7006   36.7714 O.3         1 MOL      -0.3924
     12 C2         60.8065   45.1238   40.7900 C.3         1 MOL       0.1341
     13 C3         60.0187   46.4034   41.1881 C.3         1 MOL       0.1144
     14 C4         60.5998   47.6794   40.4974 C.3         1 MOL       0.1184
     15 C5         61.0096   47.4669   38.9957 C.3         1 MOL       0.1134
     16 C6         61.9194   48.6169   38.4919 C.3         1 MOL       0.0730
     17 C1         60.9409   45.0588   39.2433 C.3         1 MOL       0.1884
     18 O2         60.1485   43.9540   41.2878 O.3         1 MOL      -0.3841
     19 O3         60.0511   46.5762   42.6065 O.3         1 MOL      -0.3864
     20 O4         59.7805   48.8596   40.6748 O.3         1 MOL      -0.3401
     21 O5         61.6969   46.2111   38.8036 O.3         1 MOL      -0.3405
     22 O6         62.0883   48.5384   37.0789 O.3         1 MOL      -0.3924
     23 C6         59.9570   44.2495   36.1027 C.3         1 MOL       0.0782
     24 C5         60.9711   43.1443   36.5064 C.3         1 MOL       0.1538
     25 C4         62.0624   43.6127   37.5272 C.3         1 MOL       0.1259
     26 C3         63.1598   42.5185   37.6662 C.3         1 MOL       0.1245
     27 C2         63.6056   41.9467   36.3034 C.3         1 MOL       0.0256
     28 O6         59.1055   43.8443   35.0315 O.3         1 MOL      -0.3922
     29 O5         61.6174   42.7115   35.2922 O.3         1 MOL      -0.3215
     30 O4         61.5950   43.8305   38.8808 O.3         1 MOL      -0.3398
     31 O3         64.3045   43.0677   38.3188 O.3         1 MOL      -0.3838
     32 N1         62.4476   41.6344   35.4521 N.4         1 MOL       0.3939
     33 H1         58.9631   50.4442   38.7373 H           1 MOL       0.0671
     34 H2         56.0947   50.5928   39.7997 H           1 MOL       0.0648
     35 H3         57.0519   49.3535   37.1655 H           1 MOL       0.0647
     36 H4         55.9625   47.9252   39.6613 H           1 MOL       0.0647
     37 H5         55.3778   46.6488   37.6404 H           1 MOL       0.0584
     38 H6         56.6699   45.8349   38.5311 H           1 MOL       0.0584
     39 H7         57.7811   48.9114   41.1170 H           1 MOL       0.0938
     40 H8         59.4585   51.3057   40.7176 H           1 MOL       0.2101
     41 H9         55.8056   51.8335   37.9554 H           1 MOL       0.2100
     42 H10        54.5265   49.4105   38.4607 H           1 MOL       0.2100
     43 H11        56.7784   47.2713   36.1187 H           1 MOL       0.2095
     44 H12        61.8062   45.1492   41.2367 H           1 MOL       0.0671
     45 H13        58.9740   46.2607   40.9041 H           1 MOL       0.0648
     46 H14        61.5255   47.8993   41.0349 H           1 MOL       0.0651
     47 H15        60.1277   47.4609   38.3525 H           1 MOL       0.0647
     48 H16        62.9016   48.5736   38.9689 H           1 MOL       0.0584
     49 H17        61.4641   49.5842   38.7236 H           1 MOL       0.0584
     50 H18        59.9360   45.0560   38.8068 H           1 MOL       0.0938
     51 H19        59.2687   43.9451   40.8497 H           1 MOL       0.2101
     52 H20        59.5155   45.8318   42.9708 H           1 MOL       0.2100
     53 H21        62.6949   49.2763   36.8753 H           1 MOL       0.2095
     54 H22        60.4852   45.1492   35.7754 H           1 MOL       0.0586
     55 H23        59.3244   44.5038   36.9558 H           1 MOL       0.0586
     56 H24        60.4089   42.3042   36.9300 H           1 MOL       0.0702
     57 H25        62.5522   44.5089   37.1313 H           1 MOL       0.0654
     58 H26        62.7768   41.6932   38.2772 H           1 MOL       0.0674
     59 H27        64.1885   41.0322   36.4513 H           1 MOL       0.0850
     60 H28        64.2292   42.6767   35.7841 H           1 MOL       0.0850
     61 H29        59.3029   42.8937   34.8601 H           1 MOL       0.2095
     62 H30        63.9415   43.6446   39.0210 H           1 MOL       0.2101
     63 H31        61.9193   40.8389   35.8290 H           1 MOL       0.2348
     64 H32        62.8167   41.3947   34.5296 H           1 MOL       0.2348
@<TRIPOS>BOND
     1     1     2   1
     2     6     1   1
     3     1     7   1
     4     2     3   1
     5     2     8   1
     6     4     3   1
     7     3     9   1
     8     4     5   1
     9    10     4   1
    10     5    11   1
    11     6    10   1
    12    20     6   1
    13    12    13   1
    14    17    12   1
    15    12    18   1
    16    13    14   1
    17    13    19   1
    18    15    14   1
    19    14    20   1
    20    15    16   1
    21    21    15   1
    22    16    22   1
    23    17    21   1
    24    30    17   1
    25    24    23   1
    26    23    28   1
    27    25    24   1
    28    24    29   1
    29    25    26   1
    30    25    30   1
    31    26    27   1
    32    26    31   1
    33    27    32   1
    34    29    32   1
    35     1    33   1
    36     2    34   1
    37     3    35   1
    38     4    36   1
    39     5    37   1
    40     5    38   1
    41     6    39   1
    42     7    40   1
    43     8    41   1
    44     9    42   1
    45    11    43   1
    46    12    44   1
    47    13    45   1
    48    14    46   1
    49    15    47   1
    50    16    48   1
    51    16    49   1
    52    17    50   1
    53    18    51   1
    54    19    52   1
    55    22    53   1
    56    23    54   1
    57    23    55   1
    58    24    56   1
    59    25    57   1
    60    26    58   1
    61    27    59   1
    62    27    60   1
    63    28    61   1
    64    31    62   1
    65    32    63   1
    66    32    64   1
@<TRIPOS>SUBSTRUCTURE
     1  MOL      1

