@<TRIPOS>MOLECULE
1w3l_ligand_032
    64    66
SMALL
GAST_HUCK
****
This file was generated by PARSER (from files_GN.cpp)

@<TRIPOS>ATOM
      1 C2         58.3944   49.0329   40.7583 C.3         1 MOL       0.1341
      2 C3         58.5945   49.7438   42.1240 C.3         1 MOL       0.1141
      3 C4         60.0618   50.2084   42.2934 C.3         1 MOL       0.1119
      4 C5         60.4888   51.0889   41.0824 C.3         1 MOL       0.1130
      5 C6         61.9868   51.4924   41.1324 C.3         1 MOL       0.0730
      6 C1         58.9281   49.9130   39.5902 C.3         1 MOL       0.1884
      7 O2         57.0095   48.7520   40.5551 O.3         1 MOL      -0.3841
      8 O3         58.2347   48.8559   43.1822 O.3         1 MOL      -0.3864
      9 O4         60.2055   50.9208   43.5230 O.3         1 MOL      -0.3865
     10 O5         60.2696   50.3843   39.8331 O.3         1 MOL      -0.3405
     11 O6         62.2166   52.7079   40.4177 O.3         1 MOL      -0.3924
     12 C2         61.9392   47.4946   36.8251 C.3         1 MOL       0.1341
     13 C3         61.1685   48.5961   37.6129 C.3         1 MOL       0.1144
     14 C4         59.6439   48.2786   37.6851 C.3         1 MOL       0.1184
     15 C5         59.4298   46.8252   38.2205 C.3         1 MOL       0.1134
     16 C6         57.9582   46.3530   38.0980 C.3         1 MOL       0.0730
     17 C1         61.6363   46.1042   37.4556 C.3         1 MOL       0.1884
     18 O2         63.3451   47.7390   36.8503 O.3         1 MOL      -0.3841
     19 O3         61.3368   49.8717   37.0064 O.3         1 MOL      -0.3864
     20 O4         58.8066   49.3016   38.2873 O.3         1 MOL      -0.3401
     21 O5         60.2125   45.8746   37.4617 O.3         1 MOL      -0.3405
     22 O6         57.8142   45.0431   38.6532 O.3         1 MOL      -0.3924
     23 C6         63.6545   41.5445   36.3752 C.3         1 MOL       0.0782
     24 C5         62.7667   42.7850   36.0584 C.3         1 MOL       0.1538
     25 C4         62.5118   43.7653   37.2495 C.3         1 MOL       0.1259
     26 C3         61.4172   43.1815   38.1977 C.3         1 MOL       0.1245
     27 C2         60.1780   42.7230   37.3923 C.3         1 MOL       0.0256
     28 O6         63.0159   40.4792   37.0727 O.3         1 MOL      -0.3922
     29 O5         61.5167   42.4518   35.4154 O.3         1 MOL      -0.3215
     30 O4         62.1964   45.0489   36.6501 O.3         1 MOL      -0.3398
     31 O3         61.9270   42.0908   38.9682 O.3         1 MOL      -0.3838
     32 N1         60.5502   41.8983   36.2223 N.4         1 MOL       0.3939
     33 H1         58.9370   48.0903   40.7929 H           1 MOL       0.0671
     34 H2         57.9305   50.6118   42.1760 H           1 MOL       0.0648
     35 H3         60.7142   49.3286   42.3391 H           1 MOL       0.0647
     36 H4         59.8927   52.0096   41.0911 H           1 MOL       0.0647
     37 H5         62.6067   50.7047   40.6786 H           1 MOL       0.0584
     38 H6         62.3318   51.6372   42.1652 H           1 MOL       0.0584
     39 H7         58.2833   50.7920   39.5365 H           1 MOL       0.0938
     40 H8         56.7491   48.1561   41.2924 H           1 MOL       0.2101
     41 H9         58.3178   49.3830   44.0040 H           1 MOL       0.2100
     42 H10        59.6141   51.7004   43.4455 H           1 MOL       0.2100
     43 H11        61.7335   53.3921   40.9311 H           1 MOL       0.2095
     44 H12        61.6151   47.4949   35.7812 H           1 MOL       0.0671
     45 H13        61.5729   48.6398   38.6248 H           1 MOL       0.0648
     46 H14        59.2964   48.2557   36.6501 H           1 MOL       0.0651
     47 H15        59.7280   46.7541   39.2685 H           1 MOL       0.0647
     48 H16        57.6616   46.3210   37.0434 H           1 MOL       0.0584
     49 H17        57.2864   47.0330   38.6283 H           1 MOL       0.0584
     50 H18        62.0460   46.0757   38.4728 H           1 MOL       0.0938
     51 H19        63.4828   48.5903   36.3809 H           1 MOL       0.2101
     52 H20        62.3016   50.0048   36.9184 H           1 MOL       0.2100
     53 H21        56.8766   44.8043   38.4939 H           1 MOL       0.2095
     54 H22        64.5079   41.8626   36.9764 H           1 MOL       0.0586
     55 H23        64.0406   41.1304   35.4422 H           1 MOL       0.0586
     56 H24        63.3323   43.3436   35.3083 H           1 MOL       0.0702
     57 H25        63.4325   43.8982   37.8212 H           1 MOL       0.0654
     58 H26        61.1023   43.9339   38.9246 H           1 MOL       0.0674
     59 H27        59.6368   43.6082   37.0374 H           1 MOL       0.0850
     60 H28        59.5087   42.1406   38.0353 H           1 MOL       0.0850
     61 H29        62.5318   39.9537   36.4005 H           1 MOL       0.2095
     62 H30        62.7204   42.4415   39.4265 H           1 MOL       0.2101
     63 H31        59.7052   41.7804   35.6586 H           1 MOL       0.2348
     64 H32        60.8404   40.9664   36.5221 H           1 MOL       0.2348
@<TRIPOS>BOND
     1     1     2   1
     2     6     1   1
     3     1     7   1
     4     2     3   1
     5     2     8   1
     6     4     3   1
     7     3     9   1
     8     4     5   1
     9    10     4   1
    10     5    11   1
    11     6    10   1
    12    20     6   1
    13    12    13   1
    14    17    12   1
    15    12    18   1
    16    13    14   1
    17    13    19   1
    18    15    14   1
    19    14    20   1
    20    15    16   1
    21    21    15   1
    22    16    22   1
    23    17    21   1
    24    30    17   1
    25    24    23   1
    26    23    28   1
    27    25    24   1
    28    24    29   1
    29    25    26   1
    30    25    30   1
    31    26    27   1
    32    26    31   1
    33    27    32   1
    34    29    32   1
    35     1    33   1
    36     2    34   1
    37     3    35   1
    38     4    36   1
    39     5    37   1
    40     5    38   1
    41     6    39   1
    42     7    40   1
    43     8    41   1
    44     9    42   1
    45    11    43   1
    46    12    44   1
    47    13    45   1
    48    14    46   1
    49    15    47   1
    50    16    48   1
    51    16    49   1
    52    17    50   1
    53    18    51   1
    54    19    52   1
    55    22    53   1
    56    23    54   1
    57    23    55   1
    58    24    56   1
    59    25    57   1
    60    26    58   1
    61    27    59   1
    62    27    60   1
    63    28    61   1
    64    31    62   1
    65    32    63   1
    66    32    64   1
@<TRIPOS>SUBSTRUCTURE
     1  MOL      1

