@<TRIPOS>MOLECULE
1w3l_ligand_056
    64    66
SMALL
GAST_HUCK
****
This file was generated by PARSER (from files_GN.cpp)

@<TRIPOS>ATOM
      1 C2         61.5414   50.4500   40.7124 C.3         1 MOL       0.1341
      2 C3         61.1693   50.4146   42.2235 C.3         1 MOL       0.1141
      3 C4         59.7126   50.9066   42.4551 C.3         1 MOL       0.1119
      4 C5         58.7161   50.1402   41.5264 C.3         1 MOL       0.1130
      5 C6         57.2793   50.7177   41.5638 C.3         1 MOL       0.0730
      6 C1         60.4716   49.6734   39.8951 C.3         1 MOL       0.1884
      7 O2         62.8373   49.8785   40.5091 O.3         1 MOL      -0.3841
      8 O3         62.0744   51.2253   42.9752 O.3         1 MOL      -0.3864
      9 O4         59.3587   50.7525   43.8318 O.3         1 MOL      -0.3865
     10 O5         59.1572   50.2131   40.1549 O.3         1 MOL      -0.3405
     11 O6         56.6765   50.5347   42.8437 O.3         1 MOL      -0.3924
     12 C2         62.1314   46.6330   36.9337 C.3         1 MOL       0.1341
     13 C3         62.0481   47.8217   37.9259 C.3         1 MOL       0.1144
     14 C4         60.8023   48.7064   37.6113 C.3         1 MOL       0.1184
     15 C5         59.5000   47.8307   37.5183 C.3         1 MOL       0.1134
     16 C6         58.2739   48.6085   36.9629 C.3         1 MOL       0.0730
     17 C1         60.8055   45.8347   36.9957 C.3         1 MOL       0.1884
     18 O2         63.2388   45.7843   37.2531 O.3         1 MOL      -0.3841
     19 O3         63.2574   48.5746   37.8705 O.3         1 MOL      -0.3864
     20 O4         60.7204   49.8567   38.4832 O.3         1 MOL      -0.3401
     21 O5         59.6943   46.6856   36.6564 O.3         1 MOL      -0.3405
     22 O6         58.6152   49.4903   35.8903 O.3         1 MOL      -0.3924
     23 C6         61.4153   41.7393   38.2382 C.3         1 MOL       0.0782
     24 C5         61.7329   42.8200   37.1602 C.3         1 MOL       0.1538
     25 C4         60.4989   43.4627   36.4270 C.3         1 MOL       0.1259
     26 C3         60.0906   42.6864   35.1395 C.3         1 MOL       0.1245
     27 C2         61.3381   42.2965   34.3139 C.3         1 MOL       0.0256
     28 O6         60.2127   41.0091   38.0267 O.3         1 MOL      -0.3922
     29 O5         62.7437   42.3942   36.2183 O.3         1 MOL      -0.3215
     30 O4         60.8545   44.7985   36.0015 O.3         1 MOL      -0.3398
     31 O3         59.3374   41.5163   35.4546 O.3         1 MOL      -0.3838
     32 N1         62.3012   41.6072   35.1917 N.4         1 MOL       0.3939
     33 H1         61.5685   51.4935   40.3764 H           1 MOL       0.0671
     34 H2         61.2531   49.3839   42.5901 H           1 MOL       0.0648
     35 H3         59.6625   51.9738   42.2219 H           1 MOL       0.0647
     36 H4         58.6628   49.0909   41.8354 H           1 MOL       0.0647
     37 H5         56.6562   50.2095   40.8204 H           1 MOL       0.0584
     38 H6         57.2929   51.7880   41.3268 H           1 MOL       0.0584
     39 H7         60.5064   48.6148   40.1968 H           1 MOL       0.0938
     40 H8         63.0836   50.1349   39.5954 H           1 MOL       0.2101
     41 H9         62.9496   50.7917   42.8741 H           1 MOL       0.2100
     42 H10        59.4035   49.7895   44.0071 H           1 MOL       0.2100
     43 H11        55.7805   50.9296   42.7613 H           1 MOL       0.2095
     44 H12        62.2749   47.0168   35.9193 H           1 MOL       0.0671
     45 H13        61.9685   47.4246   38.9392 H           1 MOL       0.0648
     46 H14        60.9813   49.1257   36.6170 H           1 MOL       0.0651
     47 H15        59.2335   47.4549   38.5131 H           1 MOL       0.0647
     48 H16        57.7928   49.1857   37.7597 H           1 MOL       0.0584
     49 H17        57.5399   47.8891   36.5825 H           1 MOL       0.0584
     50 H18        60.6782   45.4383   38.0142 H           1 MOL       0.0938
     51 H19        64.0338   46.2913   36.9763 H           1 MOL       0.2101
     52 H20        63.2366   49.0557   37.0160 H           1 MOL       0.2100
     53 H21        58.8840   50.3303   36.3202 H           1 MOL       0.2095
     54 H22        61.3172   42.2272   39.2148 H           1 MOL       0.0586
     55 H23        62.2479   41.0275   38.2992 H           1 MOL       0.0586
     56 H24        62.2330   43.6163   37.7212 H           1 MOL       0.0702
     57 H25        59.6288   43.4896   37.0949 H           1 MOL       0.0654
     58 H26        59.4392   43.3222   34.5246 H           1 MOL       0.0674
     59 H27        61.8093   43.1890   33.8877 H           1 MOL       0.0850
     60 H28        61.0541   41.6341   33.4929 H           1 MOL       0.0850
     61 H29        60.4448   40.3371   37.3579 H           1 MOL       0.2095
     62 H30        58.6430   41.4558   34.7661 H           1 MOL       0.2101
     63 H31        63.1083   41.3736   34.6182 H           1 MOL       0.2348
     64 H32        61.8808   40.7553   35.5686 H           1 MOL       0.2348
@<TRIPOS>BOND
     1     1     2   1
     2     6     1   1
     3     1     7   1
     4     2     3   1
     5     2     8   1
     6     4     3   1
     7     3     9   1
     8     4     5   1
     9    10     4   1
    10     5    11   1
    11     6    10   1
    12    20     6   1
    13    12    13   1
    14    17    12   1
    15    12    18   1
    16    13    14   1
    17    13    19   1
    18    15    14   1
    19    14    20   1
    20    15    16   1
    21    21    15   1
    22    16    22   1
    23    17    21   1
    24    30    17   1
    25    24    23   1
    26    23    28   1
    27    25    24   1
    28    24    29   1
    29    25    26   1
    30    25    30   1
    31    26    27   1
    32    26    31   1
    33    27    32   1
    34    29    32   1
    35     1    33   1
    36     2    34   1
    37     3    35   1
    38     4    36   1
    39     5    37   1
    40     5    38   1
    41     6    39   1
    42     7    40   1
    43     8    41   1
    44     9    42   1
    45    11    43   1
    46    12    44   1
    47    13    45   1
    48    14    46   1
    49    15    47   1
    50    16    48   1
    51    16    49   1
    52    17    50   1
    53    18    51   1
    54    19    52   1
    55    22    53   1
    56    23    54   1
    57    23    55   1
    58    24    56   1
    59    25    57   1
    60    26    58   1
    61    27    59   1
    62    27    60   1
    63    28    61   1
    64    31    62   1
    65    32    63   1
    66    32    64   1
@<TRIPOS>SUBSTRUCTURE
     1  MOL      1

