@<TRIPOS>MOLECULE
1w3l_ligand_018
    64    66
SMALL
GAST_HUCK
****
This file was generated by PARSER (from files_GN.cpp)

@<TRIPOS>ATOM
      1 C2         61.7408   43.3600   38.2419 C.3         1 MOL       0.1341
      2 C3         62.7483   42.2284   37.8968 C.3         1 MOL       0.1141
      3 C4         62.4449   41.5727   36.5258 C.3         1 MOL       0.1119
      4 C5         62.2004   42.6374   35.4161 C.3         1 MOL       0.1130
      5 C6         61.6315   42.0341   34.1031 C.3         1 MOL       0.0730
      6 C1         61.6112   44.3523   37.0508 C.3         1 MOL       0.1884
      7 O2         62.1557   44.0631   39.4152 O.3         1 MOL      -0.3841
      8 O3         62.6966   41.2162   38.9001 O.3         1 MOL      -0.3864
      9 O4         63.5384   40.7277   36.1938 O.3         1 MOL      -0.3865
     10 O5         61.2532   43.6352   35.8519 O.3         1 MOL      -0.3405
     11 O6         60.2655   41.6531   34.2189 O.3         1 MOL      -0.3924
     12 C2         61.2934   49.0185   37.7068 C.3         1 MOL       0.1341
     13 C3         61.0729   47.6880   36.9356 C.3         1 MOL       0.1144
     14 C4         60.8001   46.5190   37.9308 C.3         1 MOL       0.1184
     15 C5         59.5588   46.8852   38.8045 C.3         1 MOL       0.1134
     16 C6         59.2039   45.8404   39.8919 C.3         1 MOL       0.0730
     17 C1         60.1183   49.2678   38.6997 C.3         1 MOL       0.1884
     18 O2         61.3949   50.1220   36.8069 O.3         1 MOL      -0.3841
     19 O3         62.2118   47.4147   36.1167 O.3         1 MOL      -0.3864
     20 O4         60.5334   45.2876   37.2333 O.3         1 MOL      -0.3401
     21 O5         59.8151   48.1134   39.5121 O.3         1 MOL      -0.3405
     22 O6         58.6826   44.6450   39.3232 O.3         1 MOL      -0.3924
     23 C6         63.6950   49.6587   41.3934 C.3         1 MOL       0.0782
     24 C5         62.2112   49.4103   40.9904 C.3         1 MOL       0.1538
     25 C4         61.4542   50.6508   40.3743 C.3         1 MOL       0.1259
     26 C3         60.9899   51.6194   41.5041 C.3         1 MOL       0.1245
     27 C2         60.2980   50.8314   42.6488 C.3         1 MOL       0.0256
     28 O6         64.5478   49.7078   40.2523 O.3         1 MOL      -0.3922
     29 O5         61.4581   48.8472   42.0950 O.3         1 MOL      -0.3215
     30 O4         60.2655   50.3686   39.6042 O.3         1 MOL      -0.3398
     31 O3         62.0905   52.3758   42.0201 O.3         1 MOL      -0.3838
     32 N1         61.1855   49.7414   43.0976 N.4         1 MOL       0.3939
     33 H1         60.7643   42.9106   38.4435 H           1 MOL       0.0671
     34 H2         63.7597   42.6479   37.8746 H           1 MOL       0.0648
     35 H3         61.5438   40.9532   36.6355 H           1 MOL       0.0647
     36 H4         63.1485   43.1261   35.1784 H           1 MOL       0.0647
     37 H5         62.2043   41.1478   33.8188 H           1 MOL       0.0584
     38 H6         61.7243   42.7704   33.2950 H           1 MOL       0.0584
     39 H7         62.5615   44.8659   36.8849 H           1 MOL       0.0938
     40 H8         62.9782   43.6171   39.7348 H           1 MOL       0.2101
     41 H9         63.3565   41.4853   39.5740 H           1 MOL       0.2100
     42 H10        63.2038   40.1126   35.5095 H           1 MOL       0.2100
     43 H11        59.8753   42.2560   34.8842 H           1 MOL       0.2095
     44 H12        62.2365   48.9473   38.2618 H           1 MOL       0.0671
     45 H13        60.2149   47.7938   36.2654 H           1 MOL       0.0648
     46 H14        61.6615   46.4278   38.6044 H           1 MOL       0.0651
     47 H15        58.6823   47.0107   38.1631 H           1 MOL       0.0647
     48 H16        58.4400   46.2532   40.5517 H           1 MOL       0.0584
     49 H17        60.0849   45.6031   40.4889 H           1 MOL       0.0584
     50 H18        59.2164   49.4916   38.1086 H           1 MOL       0.0938
     51 H19        62.2065   49.9477   36.2657 H           1 MOL       0.2101
     52 H20        61.9432   46.6556   35.5433 H           1 MOL       0.2100
     53 H21        58.4970   44.0617   40.0894 H           1 MOL       0.2095
     54 H22        64.0371   48.8311   42.0160 H           1 MOL       0.0586
     55 H23        63.8135   50.5734   41.9661 H           1 MOL       0.0586
     56 H24        62.2545   48.6129   40.2378 H           1 MOL       0.0702
     57 H25        62.1293   51.1910   39.7086 H           1 MOL       0.0654
     58 H26        60.2751   52.3488   41.1042 H           1 MOL       0.0674
     59 H27        59.3587   50.4048   42.3003 H           1 MOL       0.0850
     60 H28        60.0866   51.4889   43.4931 H           1 MOL       0.0850
     61 H29        64.1787   50.3752   39.6429 H           1 MOL       0.2095
     62 H30        61.6931   53.0411   42.6200 H           1 MOL       0.2101
     63 H31        60.7314   49.2379   43.8619 H           1 MOL       0.2348
     64 H32        62.0634   50.1371   43.4501 H           1 MOL       0.2348
@<TRIPOS>BOND
     1     1     2   1
     2     6     1   1
     3     1     7   1
     4     2     3   1
     5     2     8   1
     6     4     3   1
     7     3     9   1
     8     4     5   1
     9    10     4   1
    10     5    11   1
    11     6    10   1
    12    20     6   1
    13    12    13   1
    14    17    12   1
    15    12    18   1
    16    13    14   1
    17    13    19   1
    18    15    14   1
    19    14    20   1
    20    15    16   1
    21    21    15   1
    22    16    22   1
    23    17    21   1
    24    30    17   1
    25    24    23   1
    26    23    28   1
    27    25    24   1
    28    24    29   1
    29    25    26   1
    30    25    30   1
    31    26    27   1
    32    26    31   1
    33    27    32   1
    34    29    32   1
    35     1    33   1
    36     2    34   1
    37     3    35   1
    38     4    36   1
    39     5    37   1
    40     5    38   1
    41     6    39   1
    42     7    40   1
    43     8    41   1
    44     9    42   1
    45    11    43   1
    46    12    44   1
    47    13    45   1
    48    14    46   1
    49    15    47   1
    50    16    48   1
    51    16    49   1
    52    17    50   1
    53    18    51   1
    54    19    52   1
    55    22    53   1
    56    23    54   1
    57    23    55   1
    58    24    56   1
    59    25    57   1
    60    26    58   1
    61    27    59   1
    62    27    60   1
    63    28    61   1
    64    31    62   1
    65    32    63   1
    66    32    64   1
@<TRIPOS>SUBSTRUCTURE
     1  MOL      1

