@<TRIPOS>MOLECULE
1w3l_ligand_079
    64    66
SMALL
GAST_HUCK
****
This file was generated by PARSER (from files_GN.cpp)

@<TRIPOS>ATOM
      1 C2         61.4468   42.3624   35.2346 C.3         1 MOL       0.1341
      2 C3         60.6435   43.6478   34.8983 C.3         1 MOL       0.1141
      3 C4         60.6968   44.6478   36.0849 C.3         1 MOL       0.1119
      4 C5         62.1808   44.9653   36.4405 C.3         1 MOL       0.1130
      5 C6         62.3496   45.8152   37.7260 C.3         1 MOL       0.0730
      6 C1         62.9025   42.7382   35.6599 C.3         1 MOL       0.1884
      7 O2         61.4319   41.4621   34.1224 O.3         1 MOL      -0.3841
      8 O3         59.2814   43.3175   34.6244 O.3         1 MOL      -0.3864
      9 O4         59.9697   45.8185   35.7304 O.3         1 MOL      -0.3865
     10 O5         62.9273   43.7511   36.6860 O.3         1 MOL      -0.3405
     11 O6         61.6132   47.0334   37.7014 O.3         1 MOL      -0.3924
     12 C2         64.2837   38.1759   37.4428 C.3         1 MOL       0.1341
     13 C3         64.5295   39.4914   36.6676 C.3         1 MOL       0.1144
     14 C4         63.3322   40.4812   36.8266 C.3         1 MOL       0.1184
     15 C5         63.0284   40.6659   38.3571 C.3         1 MOL       0.1134
     16 C6         61.6851   41.3799   38.6660 C.3         1 MOL       0.0730
     17 C1         64.0768   38.5222   38.9406 C.3         1 MOL       0.1884
     18 O2         65.4013   37.2960   37.2657 O.3         1 MOL      -0.3841
     19 O3         64.8416   39.2391   35.2950 O.3         1 MOL      -0.3864
     20 O4         63.7518   41.6621   36.1063 O.3         1 MOL      -0.3401
     21 O5         62.9386   39.3973   39.0587 O.3         1 MOL      -0.3405
     22 O6         61.6301   41.7511   40.0408 O.3         1 MOL      -0.3924
     23 C6         62.7712   37.8051   42.5308 C.3         1 MOL       0.0782
     24 C5         64.2616   37.8554   42.1062 C.3         1 MOL       0.1538
     25 C4         64.5782   36.9600   40.8627 C.3         1 MOL       0.1259
     26 C3         66.1196   36.8872   40.6448 C.3         1 MOL       0.1245
     27 C2         66.8293   36.4831   41.9683 C.3         1 MOL       0.0256
     28 O6         62.4422   36.5661   43.1486 O.3         1 MOL      -0.3922
     29 O5         65.0499   37.4251   43.2411 O.3         1 MOL      -0.3215
     30 O4         63.8251   37.3036   39.6697 O.3         1 MOL      -0.3398
     31 O3         66.4405   35.9766   39.5973 O.3         1 MOL      -0.3838
     32 N1         66.4066   37.4222   43.0293 N.4         1 MOL       0.3939
     33 H1         60.9509   41.8633   36.0786 H           1 MOL       0.0671
     34 H2         61.0581   44.1232   34.0045 H           1 MOL       0.0648
     35 H3         60.2055   44.1921   36.9509 H           1 MOL       0.0647
     36 H4         62.6409   45.5127   35.6104 H           1 MOL       0.0647
     37 H5         63.4051   46.0541   37.8582 H           1 MOL       0.0584
     38 H6         62.0200   45.2388   38.5978 H           1 MOL       0.0584
     39 H7         63.4044   43.1644   34.7852 H           1 MOL       0.0938
     40 H8         62.0323   41.8418   33.4438 H           1 MOL       0.2101
     41 H9         59.2998   42.8169   33.7853 H           1 MOL       0.2100
     42 H10        59.8489   46.3201   36.5639 H           1 MOL       0.2100
     43 H11        61.8855   47.4920   36.8778 H           1 MOL       0.2095
     44 H12        63.3884   37.6821   37.0490 H           1 MOL       0.0671
     45 H13        65.4196   39.9575   37.0894 H           1 MOL       0.0648
     46 H14        62.4636   40.0405   36.3475 H           1 MOL       0.0651
     47 H15        63.8366   41.2606   38.7856 H           1 MOL       0.0647
     48 H16        60.8457   40.7147   38.4424 H           1 MOL       0.0584
     49 H17        61.5600   42.2744   38.0582 H           1 MOL       0.0584
     50 H18        64.9612   39.0441   39.3226 H           1 MOL       0.0938
     51 H19        65.1233   36.4388   37.6568 H           1 MOL       0.2101
     52 H20        64.0798   38.7682   34.9081 H           1 MOL       0.2100
     53 H21        62.4323   42.3033   40.1812 H           1 MOL       0.2095
     54 H22        62.1213   37.9436   41.6641 H           1 MOL       0.0586
     55 H23        62.5664   38.6062   43.2403 H           1 MOL       0.0586
     56 H24        64.5125   38.8947   41.8722 H           1 MOL       0.0702
     57 H25        64.2457   35.9540   41.1115 H           1 MOL       0.0654
     58 H26        66.5057   37.8652   40.3512 H           1 MOL       0.0674
     59 H27        67.9112   36.5458   41.8485 H           1 MOL       0.0850
     60 H28        66.5667   35.4607   42.2498 H           1 MOL       0.0850
     61 H29        62.9610   36.5429   43.9818 H           1 MOL       0.2095
     62 H30        67.4119   36.0651   39.4752 H           1 MOL       0.2101
     63 H31        66.7079   38.3650   42.7793 H           1 MOL       0.2348
     64 H32        66.8690   37.1541   43.9013 H           1 MOL       0.2348
@<TRIPOS>BOND
     1     1     2   1
     2     6     1   1
     3     1     7   1
     4     2     3   1
     5     2     8   1
     6     4     3   1
     7     3     9   1
     8     4     5   1
     9    10     4   1
    10     5    11   1
    11     6    10   1
    12    20     6   1
    13    12    13   1
    14    17    12   1
    15    12    18   1
    16    13    14   1
    17    13    19   1
    18    15    14   1
    19    14    20   1
    20    15    16   1
    21    21    15   1
    22    16    22   1
    23    17    21   1
    24    30    17   1
    25    24    23   1
    26    23    28   1
    27    25    24   1
    28    24    29   1
    29    25    26   1
    30    25    30   1
    31    26    27   1
    32    26    31   1
    33    27    32   1
    34    29    32   1
    35     1    33   1
    36     2    34   1
    37     3    35   1
    38     4    36   1
    39     5    37   1
    40     5    38   1
    41     6    39   1
    42     7    40   1
    43     8    41   1
    44     9    42   1
    45    11    43   1
    46    12    44   1
    47    13    45   1
    48    14    46   1
    49    15    47   1
    50    16    48   1
    51    16    49   1
    52    17    50   1
    53    18    51   1
    54    19    52   1
    55    22    53   1
    56    23    54   1
    57    23    55   1
    58    24    56   1
    59    25    57   1
    60    26    58   1
    61    27    59   1
    62    27    60   1
    63    28    61   1
    64    31    62   1
    65    32    63   1
    66    32    64   1
@<TRIPOS>SUBSTRUCTURE
     1  MOL      1

