@<TRIPOS>MOLECULE
1w3l_ligand_019
    64    66
SMALL
GAST_HUCK
****
This file was generated by PARSER (from files_GN.cpp)

@<TRIPOS>ATOM
      1 C2         62.2261   45.9364   36.7264 C.3         1 MOL       0.1341
      2 C3         62.4255   47.4551   36.9823 C.3         1 MOL       0.1141
      3 C4         61.1336   48.2666   36.6839 C.3         1 MOL       0.1119
      4 C5         59.8985   47.5983   37.3628 C.3         1 MOL       0.1130
      5 C6         58.5587   48.2771   36.9752 C.3         1 MOL       0.0730
      6 C1         60.9535   45.4102   37.4450 C.3         1 MOL       0.1884
      7 O2         63.3895   45.2295   37.1624 O.3         1 MOL      -0.3841
      8 O3         63.4831   47.9119   36.1488 O.3         1 MOL      -0.3864
      9 O4         61.2460   49.6151   37.1405 O.3         1 MOL      -0.3865
     10 O5         59.8128   46.1901   37.0251 O.3         1 MOL      -0.3405
     11 O6         58.5628   48.7530   35.6296 O.3         1 MOL      -0.3924
     12 C2         61.1323   41.3563   39.8252 C.3         1 MOL       0.1341
     13 C3         60.4643   42.5556   39.0857 C.3         1 MOL       0.1144
     14 C4         61.3040   42.9811   37.8420 C.3         1 MOL       0.1184
     15 C5         61.5171   41.7300   36.9282 C.3         1 MOL       0.1134
     16 C6         62.3814   42.0011   35.6699 C.3         1 MOL       0.0730
     17 C1         61.4447   40.1997   38.8291 C.3         1 MOL       0.1884
     18 O2         60.2887   40.8613   40.8678 O.3         1 MOL      -0.3841
     19 O3         60.3177   43.6499   39.9927 O.3         1 MOL      -0.3864
     20 O4         60.6591   44.0373   37.0945 O.3         1 MOL      -0.3401
     21 O5         62.1757   40.6901   37.6892 O.3         1 MOL      -0.3405
     22 O6         61.6219   41.8098   34.4674 O.3         1 MOL      -0.3924
     23 C6         65.9383   39.3304   38.9966 C.3         1 MOL       0.0782
     24 C5         64.4923   38.8093   38.7831 C.3         1 MOL       0.1538
     25 C4         63.4702   39.1490   39.9202 C.3         1 MOL       0.1259
     26 C3         63.5659   38.1255   41.0952 C.3         1 MOL       0.1245
     27 C2         63.6699   36.6635   40.5746 C.3         1 MOL       0.0256
     28 O6         66.6261   38.7337   40.0890 O.3         1 MOL      -0.3922
     29 O5         64.4505   37.4063   38.4561 O.3         1 MOL      -0.3215
     30 O4         62.1049   39.0721   39.4498 O.3         1 MOL      -0.3398
     31 O3         64.6776   38.4300   41.9452 O.3         1 MOL      -0.3838
     32 N1         64.6901   36.5647   39.5087 N.4         1 MOL       0.3939
     33 H1         62.1080   45.7643   35.6505 H           1 MOL       0.0671
     34 H2         62.7182   47.6097   38.0245 H           1 MOL       0.0648
     35 H3         60.9765   48.2738   35.6015 H           1 MOL       0.0647
     36 H4         59.9919   47.6980   38.4527 H           1 MOL       0.0647
     37 H5         58.3690   49.1305   37.6329 H           1 MOL       0.0584
     38 H6         57.7334   47.5657   37.0963 H           1 MOL       0.0584
     39 H7         61.0770   45.5121   38.5264 H           1 MOL       0.0938
     40 H8         64.1109   45.5274   36.5677 H           1 MOL       0.2101
     41 H9         63.5086   48.8808   36.2372 H           1 MOL       0.2100
     42 H10        62.1850   49.8739   37.0594 H           1 MOL       0.2100
     43 H11        58.6090   47.9517   35.0689 H           1 MOL       0.2095
     44 H12        62.0614   41.7094   40.2754 H           1 MOL       0.0671
     45 H13        59.4569   42.2724   38.7513 H           1 MOL       0.0648
     46 H14        62.2931   43.2919   38.1861 H           1 MOL       0.0651
     47 H15        60.5434   41.3644   36.5792 H           1 MOL       0.0647
     48 H16        63.2331   41.3037   35.6412 H           1 MOL       0.0584
     49 H17        62.7853   43.0217   35.6741 H           1 MOL       0.0584
     50 H18        60.4846   39.8082   38.4846 H           1 MOL       0.0938
     51 H19        60.3545   41.5117   41.5986 H           1 MOL       0.2101
     52 H20        59.5485   43.4174   40.5501 H           1 MOL       0.2100
     53 H21        62.2972   41.8652   33.7551 H           1 MOL       0.2095
     54 H22        65.9179   40.4112   39.1517 H           1 MOL       0.0586
     55 H23        66.5244   39.1288   38.0971 H           1 MOL       0.0586
     56 H24        64.1545   39.3036   37.8772 H           1 MOL       0.0702
     57 H25        63.6800   40.1381   40.3252 H           1 MOL       0.0654
     58 H26        62.6651   38.1918   41.7233 H           1 MOL       0.0674
     59 H27        62.7070   36.3319   40.1707 H           1 MOL       0.0850
     60 H28        63.9436   35.9818   41.3890 H           1 MOL       0.0850
     61 H29        67.5298   39.1105   40.0624 H           1 MOL       0.2095
     62 H30        64.5721   37.8621   42.7380 H           1 MOL       0.2101
     63 H31        64.6827   35.6105   39.1478 H           1 MOL       0.2348
     64 H32        65.6117   36.7573   39.9059 H           1 MOL       0.2348
@<TRIPOS>BOND
     1     1     2   1
     2     6     1   1
     3     1     7   1
     4     2     3   1
     5     2     8   1
     6     4     3   1
     7     3     9   1
     8     4     5   1
     9    10     4   1
    10     5    11   1
    11     6    10   1
    12    20     6   1
    13    12    13   1
    14    17    12   1
    15    12    18   1
    16    13    14   1
    17    13    19   1
    18    15    14   1
    19    14    20   1
    20    15    16   1
    21    21    15   1
    22    16    22   1
    23    17    21   1
    24    30    17   1
    25    24    23   1
    26    23    28   1
    27    25    24   1
    28    24    29   1
    29    25    26   1
    30    25    30   1
    31    26    27   1
    32    26    31   1
    33    27    32   1
    34    29    32   1
    35     1    33   1
    36     2    34   1
    37     3    35   1
    38     4    36   1
    39     5    37   1
    40     5    38   1
    41     6    39   1
    42     7    40   1
    43     8    41   1
    44     9    42   1
    45    11    43   1
    46    12    44   1
    47    13    45   1
    48    14    46   1
    49    15    47   1
    50    16    48   1
    51    16    49   1
    52    17    50   1
    53    18    51   1
    54    19    52   1
    55    22    53   1
    56    23    54   1
    57    23    55   1
    58    24    56   1
    59    25    57   1
    60    26    58   1
    61    27    59   1
    62    27    60   1
    63    28    61   1
    64    31    62   1
    65    32    63   1
    66    32    64   1
@<TRIPOS>SUBSTRUCTURE
     1  MOL      1

