@<TRIPOS>MOLECULE
1w3l_ligand_028
    64    66
SMALL
GAST_HUCK
****
This file was generated by PARSER (from files_GN.cpp)

@<TRIPOS>ATOM
      1 C2         61.3036   42.1661   35.1669 C.3         1 MOL       0.1341
      2 C3         61.3759   43.6371   34.6709 C.3         1 MOL       0.1141
      3 C4         61.7983   44.6122   35.8054 C.3         1 MOL       0.1119
      4 C5         63.1113   44.0962   36.4632 C.3         1 MOL       0.1130
      5 C6         63.6006   44.9489   37.6583 C.3         1 MOL       0.0730
      6 C1         62.5465   41.7596   36.0027 C.3         1 MOL       0.1884
      7 O2         61.1430   41.2876   34.0497 O.3         1 MOL      -0.3841
      8 O3         60.1026   44.0512   34.1772 O.3         1 MOL      -0.3864
      9 O4         61.9646   45.9279   35.2819 O.3         1 MOL      -0.3865
     10 O5         62.8669   42.7731   36.9781 O.3         1 MOL      -0.3405
     11 O6         63.6804   46.3359   37.3413 O.3         1 MOL      -0.3924
     12 C2         63.2768   39.4023   40.1830 C.3         1 MOL       0.1341
     13 C3         62.3890   39.9821   39.0548 C.3         1 MOL       0.1144
     14 C4         63.1460   40.0574   37.6969 C.3         1 MOL       0.1184
     15 C5         63.6544   38.6309   37.3503 C.3         1 MOL       0.1134
     16 C6         64.5509   38.5405   36.0835 C.3         1 MOL       0.0730
     17 C1         63.9619   38.0643   39.7620 C.3         1 MOL       0.1884
     18 O2         62.5015   39.1935   41.3698 O.3         1 MOL      -0.3841
     19 O3         61.9307   41.2779   39.4255 O.3         1 MOL      -0.3864
     20 O4         62.2346   40.5269   36.6826 O.3         1 MOL      -0.3401
     21 O5         64.4859   38.1528   38.4276 O.3         1 MOL      -0.3405
     22 O6         65.9421   38.4275   36.4070 O.3         1 MOL      -0.3924
     23 C6         67.9449   35.9181   42.2176 C.3         1 MOL       0.0782
     24 C5         67.0466   37.0934   41.7420 C.3         1 MOL       0.1538
     25 C4         66.1186   36.8680   40.5006 C.3         1 MOL       0.1259
     26 C3         66.9408   37.0320   39.1728 C.3         1 MOL       0.1245
     27 C2         67.6632   38.3979   39.2037 C.3         1 MOL       0.0256
     28 O6         68.9947   35.5504   41.3359 O.3         1 MOL      -0.3922
     29 O5         67.7908   38.3231   41.5870 O.3         1 MOL      -0.3215
     30 O4         65.0733   37.8723   40.6656 O.3         1 MOL      -0.3398
     31 O3         67.8860   35.9949   38.9532 O.3         1 MOL      -0.3838
     32 N1         68.5025   38.4561   40.4153 N.4         1 MOL       0.3939
     33 H1         60.4134   42.0640   35.7964 H           1 MOL       0.0671
     34 H2         62.1016   43.7132   33.8540 H           1 MOL       0.0648
     35 H3         61.0140   44.6460   36.5664 H           1 MOL       0.0647
     36 H4         63.9162   44.0684   35.7187 H           1 MOL       0.0647
     37 H5         64.5959   44.6069   37.9549 H           1 MOL       0.0584
     38 H6         62.9264   44.8228   38.5078 H           1 MOL       0.0584
     39 H7         63.4045   41.6022   35.3473 H           1 MOL       0.0938
     40 H8         61.9210   41.4553   33.4705 H           1 MOL       0.2101
     41 H9         59.9747   43.5545   33.3451 H           1 MOL       0.2100
     42 H10        61.0564   46.2452   35.0915 H           1 MOL       0.2100
     43 H11        64.3469   46.3994   36.6245 H           1 MOL       0.2095
     44 H12        64.0594   40.1359   40.4161 H           1 MOL       0.0671
     45 H13        61.5059   39.3454   38.9350 H           1 MOL       0.0648
     46 H14        64.0283   40.7009   37.8187 H           1 MOL       0.0651
     47 H15        62.8024   37.9566   37.2114 H           1 MOL       0.0647
     48 H16        64.4229   39.4135   35.4395 H           1 MOL       0.0584
     49 H17        64.2666   37.6482   35.5091 H           1 MOL       0.0584
     50 H18        63.2561   37.2264   39.8339 H           1 MOL       0.0938
     51 H19        63.1577   39.0802   42.0902 H           1 MOL       0.2101
     52 H20        62.7376   41.8202   39.5541 H           1 MOL       0.2100
     53 H21        66.4184   38.5758   35.5642 H           1 MOL       0.2095
     54 H22        67.3310   35.0390   42.4204 H           1 MOL       0.0586
     55 H23        68.4194   36.2138   43.1511 H           1 MOL       0.0586
     56 H24        66.3819   37.2764   42.5959 H           1 MOL       0.0702
     57 H25        65.6581   35.8725   40.5428 H           1 MOL       0.0654
     58 H26        66.2835   36.9609   38.3013 H           1 MOL       0.0674
     59 H27        66.9450   39.2219   39.2072 H           1 MOL       0.0850
     60 H28        68.2730   38.4848   38.3110 H           1 MOL       0.0850
     61 H29        68.6158   34.8560   40.7586 H           1 MOL       0.2095
     62 H30        67.8259   35.8181   37.9891 H           1 MOL       0.2101
     63 H31        68.9775   39.3590   40.4252 H           1 MOL       0.2348
     64 H32        69.2061   37.7197   40.3615 H           1 MOL       0.2348
@<TRIPOS>BOND
     1     1     2   1
     2     6     1   1
     3     1     7   1
     4     2     3   1
     5     2     8   1
     6     4     3   1
     7     3     9   1
     8     4     5   1
     9    10     4   1
    10     5    11   1
    11     6    10   1
    12    20     6   1
    13    12    13   1
    14    17    12   1
    15    12    18   1
    16    13    14   1
    17    13    19   1
    18    15    14   1
    19    14    20   1
    20    15    16   1
    21    21    15   1
    22    16    22   1
    23    17    21   1
    24    30    17   1
    25    24    23   1
    26    23    28   1
    27    25    24   1
    28    24    29   1
    29    25    26   1
    30    25    30   1
    31    26    27   1
    32    26    31   1
    33    27    32   1
    34    29    32   1
    35     1    33   1
    36     2    34   1
    37     3    35   1
    38     4    36   1
    39     5    37   1
    40     5    38   1
    41     6    39   1
    42     7    40   1
    43     8    41   1
    44     9    42   1
    45    11    43   1
    46    12    44   1
    47    13    45   1
    48    14    46   1
    49    15    47   1
    50    16    48   1
    51    16    49   1
    52    17    50   1
    53    18    51   1
    54    19    52   1
    55    22    53   1
    56    23    54   1
    57    23    55   1
    58    24    56   1
    59    25    57   1
    60    26    58   1
    61    27    59   1
    62    27    60   1
    63    28    61   1
    64    31    62   1
    65    32    63   1
    66    32    64   1
@<TRIPOS>SUBSTRUCTURE
     1  MOL      1

