@<TRIPOS>MOLECULE
1w3l_ligand_012
    64    66
SMALL
GAST_HUCK
****
This file was generated by PARSER (from files_GN.cpp)

@<TRIPOS>ATOM
      1 C2         59.5455   50.7615   41.6482 C.3         1 MOL       0.1341
      2 C3         60.0419   52.2127   41.9128 C.3         1 MOL       0.1141
      3 C4         61.5898   52.2630   42.0787 C.3         1 MOL       0.1119
      4 C5         62.2963   51.5398   40.8936 C.3         1 MOL       0.1130
      5 C6         63.8199   51.3506   41.1069 C.3         1 MOL       0.0730
      6 C1         60.3145   50.1724   40.4336 C.3         1 MOL       0.1884
      7 O2         58.1448   50.7527   41.3807 O.3         1 MOL      -0.3841
      8 O3         59.3930   52.7249   43.0790 O.3         1 MOL      -0.3864
      9 O4         62.0266   53.6182   42.1541 O.3         1 MOL      -0.3865
     10 O5         61.7329   50.2275   40.7041 O.3         1 MOL      -0.3405
     11 O6         64.5398   52.5460   40.8324 O.3         1 MOL      -0.3924
     12 C2         61.7150   47.6671   36.8897 C.3         1 MOL       0.1341
     13 C3         61.4440   48.5933   38.1108 C.3         1 MOL       0.1144
     14 C4         60.1946   48.1461   38.9444 C.3         1 MOL       0.1184
     15 C5         60.2837   46.6167   39.2334 C.3         1 MOL       0.1134
     16 C6         58.9919   46.0091   39.8453 C.3         1 MOL       0.0730
     17 C1         61.7858   46.2005   37.3680 C.3         1 MOL       0.1884
     18 O2         62.9279   47.9966   36.2023 O.3         1 MOL      -0.3841
     19 O3         61.2488   49.9119   37.5909 O.3         1 MOL      -0.3864
     20 O4         59.9996   48.7816   40.2378 O.3         1 MOL      -0.3401
     21 O5         60.5555   45.8621   38.0391 O.3         1 MOL      -0.3405
     22 O6         58.0313   45.6435   38.8508 O.3         1 MOL      -0.3924
     23 C6         64.2785   43.8096   37.5668 C.3         1 MOL       0.0782
     24 C5         63.3900   43.3186   36.3946 C.3         1 MOL       0.1538
     25 C4         61.9608   43.9402   36.4132 C.3         1 MOL       0.1259
     26 C3         61.0999   43.3371   35.2713 C.3         1 MOL       0.1245
     27 C2         61.1477   41.7958   35.3467 C.3         1 MOL       0.0256
     28 O6         65.2595   42.8385   37.9200 O.3         1 MOL      -0.3922
     29 O5         63.2574   41.8841   36.4634 O.3         1 MOL      -0.3215
     30 O4         61.9780   45.3690   36.2096 O.3         1 MOL      -0.3398
     31 O3         59.7537   43.8054   35.3592 O.3         1 MOL      -0.3838
     32 N1         62.5570   41.3567   35.4049 N.4         1 MOL       0.3939
     33 H1         59.7326   50.1407   42.5346 H           1 MOL       0.0671
     34 H2         59.7539   52.8480   41.0659 H           1 MOL       0.0648
     35 H3         61.8506   51.7632   43.0104 H           1 MOL       0.0647
     36 H4         62.1509   52.1151   39.9749 H           1 MOL       0.0647
     37 H5         64.1975   50.5820   40.4289 H           1 MOL       0.0584
     38 H6         64.0296   51.0292   42.1316 H           1 MOL       0.0584
     39 H7         60.0447   50.7476   39.5436 H           1 MOL       0.0938
     40 H8         57.7176   51.0246   42.2217 H           1 MOL       0.2101
     41 H9         59.4287   53.7022   42.9922 H           1 MOL       0.2100
     42 H10        61.8299   53.9098   43.0641 H           1 MOL       0.2100
     43 H11        64.2518   53.1877   41.5149 H           1 MOL       0.2095
     44 H12        60.8846   47.7705   36.1788 H           1 MOL       0.0671
     45 H13        62.3336   48.5851   38.7543 H           1 MOL       0.0648
     46 H14        59.3060   48.3385   38.3391 H           1 MOL       0.0651
     47 H15        61.0851   46.4463   39.9571 H           1 MOL       0.0647
     48 H16        58.5167   46.7044   40.5532 H           1 MOL       0.0584
     49 H17        59.2458   45.0966   40.4042 H           1 MOL       0.0584
     50 H18        62.6373   46.0819   38.0410 H           1 MOL       0.0938
     51 H19        63.1133   48.9431   36.3794 H           1 MOL       0.2101
     52 H20        62.1520   50.2106   37.3172 H           1 MOL       0.2100
     53 H21        57.7149   46.4945   38.4728 H           1 MOL       0.2095
     54 H22        63.6749   44.0150   38.4575 H           1 MOL       0.0586
     55 H23        64.7959   44.7277   37.2775 H           1 MOL       0.0586
     56 H24        63.8865   43.5869   35.4606 H           1 MOL       0.0702
     57 H25        61.4824   43.6620   37.3612 H           1 MOL       0.0654
     58 H26        61.5018   43.6611   34.3083 H           1 MOL       0.0674
     59 H27        60.6716   41.3677   34.4670 H           1 MOL       0.0850
     60 H28        60.6180   41.4426   36.2369 H           1 MOL       0.0850
     61 H29        65.9837   43.3444   38.3584 H           1 MOL       0.2095
     62 H30        59.5021   43.6799   36.2981 H           1 MOL       0.2101
     63 H31        63.0103   41.6157   34.5308 H           1 MOL       0.2348
     64 H32        62.5669   40.3422   35.4841 H           1 MOL       0.2348
@<TRIPOS>BOND
     1     1     2   1
     2     6     1   1
     3     1     7   1
     4     2     3   1
     5     2     8   1
     6     4     3   1
     7     3     9   1
     8     4     5   1
     9    10     4   1
    10     5    11   1
    11     6    10   1
    12    20     6   1
    13    12    13   1
    14    17    12   1
    15    12    18   1
    16    13    14   1
    17    13    19   1
    18    15    14   1
    19    14    20   1
    20    15    16   1
    21    21    15   1
    22    16    22   1
    23    17    21   1
    24    30    17   1
    25    24    23   1
    26    23    28   1
    27    25    24   1
    28    24    29   1
    29    25    26   1
    30    25    30   1
    31    26    27   1
    32    26    31   1
    33    27    32   1
    34    29    32   1
    35     1    33   1
    36     2    34   1
    37     3    35   1
    38     4    36   1
    39     5    37   1
    40     5    38   1
    41     6    39   1
    42     7    40   1
    43     8    41   1
    44     9    42   1
    45    11    43   1
    46    12    44   1
    47    13    45   1
    48    14    46   1
    49    15    47   1
    50    16    48   1
    51    16    49   1
    52    17    50   1
    53    18    51   1
    54    19    52   1
    55    22    53   1
    56    23    54   1
    57    23    55   1
    58    24    56   1
    59    25    57   1
    60    26    58   1
    61    27    59   1
    62    27    60   1
    63    28    61   1
    64    31    62   1
    65    32    63   1
    66    32    64   1
@<TRIPOS>SUBSTRUCTURE
     1  MOL      1

