@<TRIPOS>MOLECULE
1w3l_ligand_064
    64    66
SMALL
GAST_HUCK
****
This file was generated by PARSER (from files_GN.cpp)

@<TRIPOS>ATOM
      1 C2         63.1233   43.1839   37.3572 C.3         1 MOL       0.1341
      2 C3         63.0617   42.0816   36.2584 C.3         1 MOL       0.1141
      3 C4         61.7697   42.2140   35.4101 C.3         1 MOL       0.1119
      4 C5         61.7128   43.6559   34.8315 C.3         1 MOL       0.1130
      5 C6         60.4904   43.9184   33.9240 C.3         1 MOL       0.0730
      6 C1         62.8025   44.6136   36.8114 C.3         1 MOL       0.1884
      7 O2         64.4215   43.1668   37.9549 O.3         1 MOL      -0.3841
      8 O3         63.1254   40.7936   36.8740 O.3         1 MOL      -0.3864
      9 O4         61.7138   41.2266   34.3805 O.3         1 MOL      -0.3865
     10 O5         61.6573   44.5849   35.9303 O.3         1 MOL      -0.3405
     11 O6         59.2533   43.6784   34.5885 O.3         1 MOL      -0.3924
     12 C2         59.5758   47.0740   39.6338 C.3         1 MOL       0.1341
     13 C3         60.7770   46.1003   39.4326 C.3         1 MOL       0.1144
     14 C4         61.4931   46.3809   38.0764 C.3         1 MOL       0.1184
     15 C5         61.9056   47.8835   38.0121 C.3         1 MOL       0.1134
     16 C6         62.5741   48.3037   36.6850 C.3         1 MOL       0.0730
     17 C1         60.0299   48.5549   39.4258 C.3         1 MOL       0.1884
     18 O2         58.9848   46.9008   40.9223 O.3         1 MOL      -0.3841
     19 O3         60.2997   44.7495   39.4786 O.3         1 MOL      -0.3864
     20 O4         62.6175   45.4687   37.9683 O.3         1 MOL      -0.3401
     21 O5         60.7375   48.7110   38.1797 O.3         1 MOL      -0.3405
     22 O6         62.1212   47.5289   35.5645 O.3         1 MOL      -0.3924
     23 C6         58.6974   49.9909   36.3437 C.3         1 MOL       0.0782
     24 C5         57.7711   50.4567   37.5001 C.3         1 MOL       0.1538
     25 C4         57.7600   49.5232   38.7643 C.3         1 MOL       0.1259
     26 C3         56.6523   50.0123   39.7469 C.3         1 MOL       0.1245
     27 C2         55.3049   50.2132   39.0154 C.3         1 MOL       0.0256
     28 O6         58.6816   48.5683   36.1859 O.3         1 MOL      -0.3922
     29 O5         56.4334   50.5449   36.9574 O.3         1 MOL      -0.3215
     30 O4         58.9941   49.5612   39.5260 O.3         1 MOL      -0.3398
     31 O3         56.4714   49.0769   40.8118 O.3         1 MOL      -0.3838
     32 N1         55.5094   51.0704   37.8293 N.4         1 MOL       0.3939
     33 H1         62.3852   42.9343   38.1331 H           1 MOL       0.0671
     34 H2         63.9331   42.1867   35.6055 H           1 MOL       0.0648
     35 H3         60.9076   42.0452   36.0639 H           1 MOL       0.0647
     36 H4         62.6060   43.8461   34.2230 H           1 MOL       0.0647
     37 H5         60.5530   43.2968   33.0252 H           1 MOL       0.0584
     38 H6         60.4969   44.9643   33.6063 H           1 MOL       0.0584
     39 H7         63.6628   44.9864   36.2498 H           1 MOL       0.0938
     40 H8         64.3476   43.7408   38.7437 H           1 MOL       0.2101
     41 H9         62.8757   40.1570   36.1646 H           1 MOL       0.2100
     42 H10        62.3788   41.4977   33.7142 H           1 MOL       0.2100
     43 H11        59.2305   42.7118   34.7635 H           1 MOL       0.2095
     44 H12        58.8150   46.8322   38.8871 H           1 MOL       0.0671
     45 H13        61.4808   46.2338   40.2634 H           1 MOL       0.0648
     46 H14        60.7357   46.1923   37.3034 H           1 MOL       0.0651
     47 H15        62.6198   48.0972   38.8073 H           1 MOL       0.0647
     48 H16        63.6621   48.2006   36.7629 H           1 MOL       0.0584
     49 H17        62.3515   49.3634   36.4916 H           1 MOL       0.0584
     50 H18        60.7172   48.8107   40.2373 H           1 MOL       0.0938
     51 H19        59.6886   47.1157   41.5688 H           1 MOL       0.2101
     52 H20        61.1130   44.2024   39.5238 H           1 MOL       0.2100
     53 H21        61.6687   48.1782   34.9630 H           1 MOL       0.2095
     54 H22        59.7224   50.3161   36.5230 H           1 MOL       0.0586
     55 H23        58.3648   50.4474   35.4060 H           1 MOL       0.0586
     56 H24        58.1029   51.4593   37.7957 H           1 MOL       0.0702
     57 H25        57.5010   48.5007   38.4533 H           1 MOL       0.0654
     58 H26        56.9537   50.9748   40.1861 H           1 MOL       0.0674
     59 H27        54.5862   50.6963   39.6842 H           1 MOL       0.0850
     60 H28        54.9009   49.2488   38.6967 H           1 MOL       0.0850
     61 H29        58.9992   48.4054   35.2624 H           1 MOL       0.2095
     62 H30        57.3047   49.1167   41.3343 H           1 MOL       0.2101
     63 H31        55.8089   52.0036   38.1318 H           1 MOL       0.2348
     64 H32        54.6172   51.1581   37.3407 H           1 MOL       0.2348
@<TRIPOS>BOND
     1     1     2   1
     2     6     1   1
     3     1     7   1
     4     2     3   1
     5     2     8   1
     6     4     3   1
     7     3     9   1
     8     4     5   1
     9    10     4   1
    10     5    11   1
    11     6    10   1
    12    20     6   1
    13    12    13   1
    14    17    12   1
    15    12    18   1
    16    13    14   1
    17    13    19   1
    18    15    14   1
    19    14    20   1
    20    15    16   1
    21    21    15   1
    22    16    22   1
    23    17    21   1
    24    30    17   1
    25    24    23   1
    26    23    28   1
    27    25    24   1
    28    24    29   1
    29    25    26   1
    30    25    30   1
    31    26    27   1
    32    26    31   1
    33    27    32   1
    34    29    32   1
    35     1    33   1
    36     2    34   1
    37     3    35   1
    38     4    36   1
    39     5    37   1
    40     5    38   1
    41     6    39   1
    42     7    40   1
    43     8    41   1
    44     9    42   1
    45    11    43   1
    46    12    44   1
    47    13    45   1
    48    14    46   1
    49    15    47   1
    50    16    48   1
    51    16    49   1
    52    17    50   1
    53    18    51   1
    54    19    52   1
    55    22    53   1
    56    23    54   1
    57    23    55   1
    58    24    56   1
    59    25    57   1
    60    26    58   1
    61    27    59   1
    62    27    60   1
    63    28    61   1
    64    31    62   1
    65    32    63   1
    66    32    64   1
@<TRIPOS>SUBSTRUCTURE
     1  MOL      1

