@<TRIPOS>MOLECULE
1w3l_ligand_013
    64    66
SMALL
GAST_HUCK
****
This file was generated by PARSER (from files_GN.cpp)

@<TRIPOS>ATOM
      1 C2         60.7181   43.4562   34.8822 C.3         1 MOL       0.1341
      2 C3         61.2202   42.0312   35.2387 C.3         1 MOL       0.1141
      3 C4         62.6560   42.0851   35.8478 C.3         1 MOL       0.1119
      4 C5         62.7572   43.1513   36.9811 C.3         1 MOL       0.1130
      5 C6         64.2165   43.4394   37.4122 C.3         1 MOL       0.0730
      6 C1         60.8452   44.3836   36.1095 C.3         1 MOL       0.1884
      7 O2         59.3550   43.4444   34.4632 O.3         1 MOL      -0.3841
      8 O3         61.1845   41.2002   34.0719 O.3         1 MOL      -0.3864
      9 O4         63.0046   40.8008   36.3599 O.3         1 MOL      -0.3865
     10 O5         62.2127   44.4156   36.5545 O.3         1 MOL      -0.3405
     11 O6         64.9652   42.2445   37.6007 O.3         1 MOL      -0.3924
     12 C2         60.9154   49.1617   37.2078 C.3         1 MOL       0.1341
     13 C3         61.1606   47.9527   36.2700 C.3         1 MOL       0.1144
     14 C4         60.3195   46.7159   36.7096 C.3         1 MOL       0.1184
     15 C5         58.8276   47.1345   36.8924 C.3         1 MOL       0.1134
     16 C6         57.9261   45.9889   37.4090 C.3         1 MOL       0.0730
     17 C1         59.3940   49.4260   37.3747 C.3         1 MOL       0.1884
     18 O2         61.5340   50.3411   36.7100 O.3         1 MOL      -0.3841
     19 O3         62.5485   47.6084   36.2403 O.3         1 MOL      -0.3864
     20 O4         60.4385   45.6978   35.6891 O.3         1 MOL      -0.3401
     21 O5         58.7568   48.2186   37.8313 O.3         1 MOL      -0.3405
     22 O6         56.9178   46.4798   38.3045 O.3         1 MOL      -0.3924
     23 C6         57.0233   52.0017   36.6645 C.3         1 MOL       0.0782
     24 C5         57.2209   52.0436   38.2012 C.3         1 MOL       0.1538
     25 C4         57.8198   50.7210   38.7798 C.3         1 MOL       0.1259
     26 C3         57.8406   50.8087   40.3324 C.3         1 MOL       0.1245
     27 C2         56.4525   51.2255   40.8740 C.3         1 MOL       0.0256
     28 O6         56.3870   53.1970   36.2084 O.3         1 MOL      -0.3922
     29 O5         55.9330   52.2794   38.8079 O.3         1 MOL      -0.3215
     30 O4         59.1817   50.4837   38.3342 O.3         1 MOL      -0.3398
     31 O3         58.2409   49.5633   40.9045 O.3         1 MOL      -0.3838
     32 N1         55.9990   52.4415   40.1679 N.4         1 MOL       0.3939
     33 H1         61.3222   43.8552   34.0596 H           1 MOL       0.0671
     34 H2         60.5352   41.5905   35.9734 H           1 MOL       0.0648
     35 H3         63.3551   42.3425   35.0540 H           1 MOL       0.0647
     36 H4         62.2026   42.7972   37.8565 H           1 MOL       0.0647
     37 H5         64.2171   44.0001   38.3485 H           1 MOL       0.0584
     38 H6         64.7121   44.0405   36.6538 H           1 MOL       0.0584
     39 H7         60.1817   44.0296   36.9056 H           1 MOL       0.0938
     40 H8         59.3339   42.8880   33.6559 H           1 MOL       0.2101
     41 H9         61.9500   41.4850   33.5200 H           1 MOL       0.2100
     42 H10        63.0292   40.2111   35.5822 H           1 MOL       0.2100
     43 H11        64.7952   41.9709   38.5285 H           1 MOL       0.2095
     44 H12        61.3519   48.9516   38.1876 H           1 MOL       0.0671
     45 H13        60.8738   48.2198   35.2508 H           1 MOL       0.0648
     46 H14        60.7112   46.3765   37.6831 H           1 MOL       0.0651
     47 H15        58.4159   47.4439   35.9346 H           1 MOL       0.0647
     48 H16        58.5108   45.2264   37.9446 H           1 MOL       0.0584
     49 H17        57.4151   45.5069   36.5631 H           1 MOL       0.0584
     50 H18        58.9785   49.7391   36.4100 H           1 MOL       0.0938
     51 H19        62.3647   50.0447   36.2774 H           1 MOL       0.2101
     52 H20        62.8074   47.5000   37.1803 H           1 MOL       0.2100
     53 H21        56.3294   47.0492   37.7551 H           1 MOL       0.2095
     54 H22        56.4021   51.1445   36.3783 H           1 MOL       0.0586
     55 H23        57.9918   51.9204   36.1569 H           1 MOL       0.0586
     56 H24        57.8866   52.8785   38.4289 H           1 MOL       0.0702
     57 H25        57.1473   49.8973   38.5038 H           1 MOL       0.0654
     58 H26        58.5772   51.5620   40.6330 H           1 MOL       0.0674
     59 H27        56.5204   51.4348   41.9407 H           1 MOL       0.0850
     60 H28        55.7273   50.4272   40.7188 H           1 MOL       0.0850
     61 H29        56.2264   53.0473   35.2493 H           1 MOL       0.2095
     62 H30        57.5740   48.9110   40.6057 H           1 MOL       0.2101
     63 H31        56.6357   53.2123   40.3838 H           1 MOL       0.2348
     64 H32        55.0675   52.6855   40.5137 H           1 MOL       0.2348
@<TRIPOS>BOND
     1     1     2   1
     2     6     1   1
     3     1     7   1
     4     2     3   1
     5     2     8   1
     6     4     3   1
     7     3     9   1
     8     4     5   1
     9    10     4   1
    10     5    11   1
    11     6    10   1
    12    20     6   1
    13    12    13   1
    14    17    12   1
    15    12    18   1
    16    13    14   1
    17    13    19   1
    18    15    14   1
    19    14    20   1
    20    15    16   1
    21    21    15   1
    22    16    22   1
    23    17    21   1
    24    30    17   1
    25    24    23   1
    26    23    28   1
    27    25    24   1
    28    24    29   1
    29    25    26   1
    30    25    30   1
    31    26    27   1
    32    26    31   1
    33    27    32   1
    34    29    32   1
    35     1    33   1
    36     2    34   1
    37     3    35   1
    38     4    36   1
    39     5    37   1
    40     5    38   1
    41     6    39   1
    42     7    40   1
    43     8    41   1
    44     9    42   1
    45    11    43   1
    46    12    44   1
    47    13    45   1
    48    14    46   1
    49    15    47   1
    50    16    48   1
    51    16    49   1
    52    17    50   1
    53    18    51   1
    54    19    52   1
    55    22    53   1
    56    23    54   1
    57    23    55   1
    58    24    56   1
    59    25    57   1
    60    26    58   1
    61    27    59   1
    62    27    60   1
    63    28    61   1
    64    31    62   1
    65    32    63   1
    66    32    64   1
@<TRIPOS>SUBSTRUCTURE
     1  MOL      1

