@<TRIPOS>MOLECULE
1w3l_ligand_031
    64    66
SMALL
GAST_HUCK
****
This file was generated by PARSER (from files_GN.cpp)

@<TRIPOS>ATOM
      1 C2         54.7821   48.2477   38.0215 C.3         1 MOL       0.1341
      2 C3         53.3892   48.9507   38.0008 C.3         1 MOL       0.1141
      3 C4         53.2734   50.0302   39.1120 C.3         1 MOL       0.1119
      4 C5         54.4866   50.9993   39.0241 C.3         1 MOL       0.1130
      5 C6         54.4621   52.1082   40.1064 C.3         1 MOL       0.0730
      6 C1         55.9563   49.2723   38.1270 C.3         1 MOL       0.1884
      7 O2         54.9295   47.4316   36.8600 O.3         1 MOL      -0.3841
      8 O3         52.3729   47.9544   38.1665 O.3         1 MOL      -0.3864
      9 O4         52.0444   50.7504   38.9782 O.3         1 MOL      -0.3865
     10 O5         55.7119   50.2466   39.1660 O.3         1 MOL      -0.3405
     11 O6         54.5281   51.5741   41.4247 O.3         1 MOL      -0.3924
     12 C2         60.2903   47.8545   36.3695 C.3         1 MOL       0.1341
     13 C3         59.3333   48.6580   37.2995 C.3         1 MOL       0.1144
     14 C4         57.9725   47.9222   37.5067 C.3         1 MOL       0.1184
     15 C5         58.2611   46.4658   37.9775 C.3         1 MOL       0.1134
     16 C6         56.9966   45.5900   38.1768 C.3         1 MOL       0.0730
     17 C1         60.4012   46.3702   36.8158 C.3         1 MOL       0.1884
     18 O2         61.5935   48.4306   36.3788 O.3         1 MOL      -0.3841
     19 O3         59.1156   49.9593   36.7490 O.3         1 MOL      -0.3864
     20 O4         57.1826   48.6104   38.5086 O.3         1 MOL      -0.3401
     21 O5         59.0839   45.8069   36.9900 O.3         1 MOL      -0.3405
     22 O6         56.2840   45.3827   36.9553 O.3         1 MOL      -0.3924
     23 C6         63.4742   44.4860   37.4306 C.3         1 MOL       0.0782
     24 C5         62.8135   43.8095   36.2047 C.3         1 MOL       0.1538
     25 C4         61.3109   44.2014   36.0464 C.3         1 MOL       0.1259
     26 C3         60.7212   43.4119   34.8449 C.3         1 MOL       0.1245
     27 C2         60.9837   41.8958   35.0295 C.3         1 MOL       0.0256
     28 O6         63.5632   45.8941   37.2282 O.3         1 MOL      -0.3922
     29 O5         62.9062   42.3743   36.3654 O.3         1 MOL      -0.3215
     30 O4         61.1255   45.6209   35.8126 O.3         1 MOL      -0.3398
     31 O3         59.3254   43.6666   34.7140 O.3         1 MOL      -0.3838
     32 N1         62.4210   41.6776   35.2791 N.4         1 MOL       0.3939
     33 H1         54.8253   47.5871   38.8983 H           1 MOL       0.0671
     34 H2         53.2301   49.4299   37.0281 H           1 MOL       0.0648
     35 H3         53.2812   49.5319   40.0897 H           1 MOL       0.0647
     36 H4         54.4783   51.5062   38.0539 H           1 MOL       0.0647
     37 H5         53.5516   52.7050   40.0201 H           1 MOL       0.0584
     38 H6         55.3136   52.7827   39.9686 H           1 MOL       0.0584
     39 H7         56.0919   49.8072   37.1807 H           1 MOL       0.0938
     40 H8         54.2813   46.7089   36.9777 H           1 MOL       0.2101
     41 H9         51.5130   48.4052   37.9867 H           1 MOL       0.2100
     42 H10        51.3675   50.1918   39.4205 H           1 MOL       0.2100
     43 H11        55.4233   51.1806   41.4955 H           1 MOL       0.2095
     44 H12        59.9086   47.8878   35.3460 H           1 MOL       0.0671
     45 H13        59.8152   48.7824   38.2760 H           1 MOL       0.0648
     46 H14        57.4604   47.8748   36.5378 H           1 MOL       0.0651
     47 H15        58.7858   46.4962   38.9397 H           1 MOL       0.0647
     48 H16        56.3215   46.0553   38.8975 H           1 MOL       0.0584
     49 H17        57.3072   44.6150   38.5652 H           1 MOL       0.0584
     50 H18        60.9530   46.3189   37.7606 H           1 MOL       0.0938
     51 H19        61.5660   49.1849   35.7532 H           1 MOL       0.2101
     52 H20        58.7378   50.4886   37.4864 H           1 MOL       0.2100
     53 H21        56.9669   45.4842   36.2471 H           1 MOL       0.2095
     54 H22        64.4853   44.1006   37.5771 H           1 MOL       0.0586
     55 H23        62.8924   44.2842   38.3343 H           1 MOL       0.0586
     56 H24        63.3763   44.1052   35.3120 H           1 MOL       0.0702
     57 H25        60.7893   43.8617   36.9488 H           1 MOL       0.0654
     58 H26        61.2042   43.7493   33.9205 H           1 MOL       0.0674
     59 H27        60.6985   41.3597   34.1248 H           1 MOL       0.0850
     60 H28        60.4020   41.5058   35.8674 H           1 MOL       0.0850
     61 H29        63.5121   46.2897   38.1236 H           1 MOL       0.2095
     62 H30        59.0399   43.1422   33.9359 H           1 MOL       0.2101
     63 H31        62.9331   41.9698   34.4454 H           1 MOL       0.2348
     64 H32        62.5762   40.6722   35.4156 H           1 MOL       0.2348
@<TRIPOS>BOND
     1     1     2   1
     2     6     1   1
     3     1     7   1
     4     2     3   1
     5     2     8   1
     6     4     3   1
     7     3     9   1
     8     4     5   1
     9    10     4   1
    10     5    11   1
    11     6    10   1
    12    20     6   1
    13    12    13   1
    14    17    12   1
    15    12    18   1
    16    13    14   1
    17    13    19   1
    18    15    14   1
    19    14    20   1
    20    15    16   1
    21    21    15   1
    22    16    22   1
    23    17    21   1
    24    30    17   1
    25    24    23   1
    26    23    28   1
    27    25    24   1
    28    24    29   1
    29    25    26   1
    30    25    30   1
    31    26    27   1
    32    26    31   1
    33    27    32   1
    34    29    32   1
    35     1    33   1
    36     2    34   1
    37     3    35   1
    38     4    36   1
    39     5    37   1
    40     5    38   1
    41     6    39   1
    42     7    40   1
    43     8    41   1
    44     9    42   1
    45    11    43   1
    46    12    44   1
    47    13    45   1
    48    14    46   1
    49    15    47   1
    50    16    48   1
    51    16    49   1
    52    17    50   1
    53    18    51   1
    54    19    52   1
    55    22    53   1
    56    23    54   1
    57    23    55   1
    58    24    56   1
    59    25    57   1
    60    26    58   1
    61    27    59   1
    62    27    60   1
    63    28    61   1
    64    31    62   1
    65    32    63   1
    66    32    64   1
@<TRIPOS>SUBSTRUCTURE
     1  MOL      1

