@<TRIPOS>MOLECULE
1w3l_ligand_050
    64    66
SMALL
GAST_HUCK
****
This file was generated by PARSER (from files_GN.cpp)

@<TRIPOS>ATOM
      1 C2         53.9436   48.4638   38.8989 C.3         1 MOL       0.1341
      2 C3         53.2082   49.4461   39.8513 C.3         1 MOL       0.1141
      3 C4         53.5348   49.1534   41.3428 C.3         1 MOL       0.1119
      4 C5         55.0764   49.0793   41.5514 C.3         1 MOL       0.1130
      5 C6         55.4875   48.6093   42.9690 C.3         1 MOL       0.0730
      6 C1         55.4602   48.4098   39.2234 C.3         1 MOL       0.1884
      7 O2         53.7330   48.8620   37.5442 O.3         1 MOL      -0.3841
      8 O3         51.7977   49.3787   39.6342 O.3         1 MOL      -0.3864
      9 O4         52.9675   50.1659   42.1721 O.3         1 MOL      -0.3865
     10 O5         55.6441   48.1256   40.6276 O.3         1 MOL      -0.3405
     11 O6         55.1600   49.5728   43.9640 O.3         1 MOL      -0.3924
     12 C2         58.8148   44.9147   39.3441 C.3         1 MOL       0.1341
     13 C3         57.3890   45.4919   39.1994 C.3         1 MOL       0.1144
     14 C4         57.4257   46.9639   38.6759 C.3         1 MOL       0.1184
     15 C5         58.2870   47.0297   37.3736 C.3         1 MOL       0.1134
     16 C6         58.4838   48.4845   36.8917 C.3         1 MOL       0.0730
     17 C1         59.5449   45.0403   37.9865 C.3         1 MOL       0.1884
     18 O2         58.7438   43.5554   39.7403 O.3         1 MOL      -0.3841
     19 O3         56.7217   45.3844   40.4560 O.3         1 MOL      -0.3864
     20 O4         56.0616   47.3858   38.3914 O.3         1 MOL      -0.3401
     21 O5         59.5924   46.4359   37.5810 O.3         1 MOL      -0.3405
     22 O6         59.1998   48.5290   35.6594 O.3         1 MOL      -0.3924
     23 C6         63.3884   45.6140   36.8299 C.3         1 MOL       0.0782
     24 C5         62.3179   44.7300   36.1403 C.3         1 MOL       0.1538
     25 C4         61.5866   43.7877   37.1401 C.3         1 MOL       0.1259
     26 C3         60.7591   42.6889   36.4021 C.3         1 MOL       0.1245
     27 C2         61.6069   42.0262   35.2910 C.3         1 MOL       0.0256
     28 O6         62.8417   46.8580   37.2455 O.3         1 MOL      -0.3922
     29 O5         62.9937   43.9443   35.1310 O.3         1 MOL      -0.3215
     30 O4         60.8669   44.4870   38.1824 O.3         1 MOL      -0.3398
     31 O3         60.3111   41.7054   37.3519 O.3         1 MOL      -0.3838
     32 N1         62.1503   43.1054   34.4398 N.4         1 MOL       0.3939
     33 H1         53.5194   47.4646   39.0277 H           1 MOL       0.0671
     34 H2         53.5241   50.4654   39.6169 H           1 MOL       0.0648
     35 H3         53.0896   48.1936   41.6243 H           1 MOL       0.0647
     36 H4         55.5223   50.0666   41.3730 H           1 MOL       0.0647
     37 H5         56.5680   48.4460   43.0015 H           1 MOL       0.0584
     38 H6         54.9965   47.6681   43.2128 H           1 MOL       0.0584
     39 H7         55.9337   49.3639   38.9741 H           1 MOL       0.0938
     40 H8         54.0761   48.1205   37.0021 H           1 MOL       0.2101
     41 H9         51.5338   48.4683   39.8837 H           1 MOL       0.2100
     42 H10        51.9987   50.0256   42.1308 H           1 MOL       0.2100
     43 H11        55.7414   50.3396   43.7805 H           1 MOL       0.2095
     44 H12        59.3606   45.4734   40.1189 H           1 MOL       0.0671
     45 H13        56.8300   44.8730   38.4850 H           1 MOL       0.0648
     46 H14        57.9075   47.5968   39.4243 H           1 MOL       0.0651
     47 H15        57.7706   46.4893   36.5716 H           1 MOL       0.0647
     48 H16        59.0542   49.0516   37.6378 H           1 MOL       0.0584
     49 H17        57.5160   48.9705   36.7512 H           1 MOL       0.0584
     50 H18        58.9983   44.4572   37.2418 H           1 MOL       0.0938
     51 H19        59.6549   43.2990   39.9788 H           1 MOL       0.2101
     52 H20        55.7950   45.6471   40.2793 H           1 MOL       0.2100
     53 H21        58.7400   47.8919   35.0720 H           1 MOL       0.2095
     54 H22        64.2163   45.8235   36.1275 H           1 MOL       0.0586
     55 H23        63.8307   45.0945   37.6734 H           1 MOL       0.0586
     56 H24        61.5847   45.3858   35.6467 H           1 MOL       0.0702
     57 H25        62.3689   43.2460   37.6832 H           1 MOL       0.0654
     58 H26        59.8790   43.1300   35.9200 H           1 MOL       0.0674
     59 H27        60.9769   41.3712   34.6846 H           1 MOL       0.0850
     60 H28        62.4184   41.4289   35.7236 H           1 MOL       0.0850
     61 H29        63.1293   46.9611   38.1803 H           1 MOL       0.2095
     62 H30        60.4360   40.8330   36.9089 H           1 MOL       0.2101
     63 H31        61.3768   43.6528   34.0467 H           1 MOL       0.2348
     64 H32        62.6649   42.6791   33.6773 H           1 MOL       0.2348
@<TRIPOS>BOND
     1     1     2   1
     2     6     1   1
     3     1     7   1
     4     2     3   1
     5     2     8   1
     6     4     3   1
     7     3     9   1
     8     4     5   1
     9    10     4   1
    10     5    11   1
    11     6    10   1
    12    20     6   1
    13    12    13   1
    14    17    12   1
    15    12    18   1
    16    13    14   1
    17    13    19   1
    18    15    14   1
    19    14    20   1
    20    15    16   1
    21    21    15   1
    22    16    22   1
    23    17    21   1
    24    30    17   1
    25    24    23   1
    26    23    28   1
    27    25    24   1
    28    24    29   1
    29    25    26   1
    30    25    30   1
    31    26    27   1
    32    26    31   1
    33    27    32   1
    34    29    32   1
    35     1    33   1
    36     2    34   1
    37     3    35   1
    38     4    36   1
    39     5    37   1
    40     5    38   1
    41     6    39   1
    42     7    40   1
    43     8    41   1
    44     9    42   1
    45    11    43   1
    46    12    44   1
    47    13    45   1
    48    14    46   1
    49    15    47   1
    50    16    48   1
    51    16    49   1
    52    17    50   1
    53    18    51   1
    54    19    52   1
    55    22    53   1
    56    23    54   1
    57    23    55   1
    58    24    56   1
    59    25    57   1
    60    26    58   1
    61    27    59   1
    62    27    60   1
    63    28    61   1
    64    31    62   1
    65    32    63   1
    66    32    64   1
@<TRIPOS>SUBSTRUCTURE
     1  MOL      1

