@<TRIPOS>MOLECULE
1w3l_ligand_048
    64    66
SMALL
GAST_HUCK
****
This file was generated by PARSER (from files_GN.cpp)

@<TRIPOS>ATOM
      1 C2         56.9457   51.1781   40.3092 C.3         1 MOL       0.1341
      2 C3         56.3641   52.5857   39.9892 C.3         1 MOL       0.1141
      3 C4         56.7755   53.0618   38.5678 C.3         1 MOL       0.1119
      4 C5         56.4523   51.9546   37.5093 C.3         1 MOL       0.1130
      5 C6         56.9488   52.3138   36.0826 C.3         1 MOL       0.0730
      6 C1         56.5780   50.1851   39.1665 C.3         1 MOL       0.1884
      7 O2         56.4201   50.6928   41.5467 O.3         1 MOL      -0.3841
      8 O3         56.7657   53.5372   40.9709 O.3         1 MOL      -0.3864
      9 O4         56.1027   54.2823   38.2380 O.3         1 MOL      -0.3865
     10 O5         57.0409   50.6853   37.8864 O.3         1 MOL      -0.3405
     11 O6         58.1981   53.0107   36.1034 O.3         1 MOL      -0.3924
     12 C2         60.3779   47.0741   39.9029 C.3         1 MOL       0.1341
     13 C3         59.0239   47.7310   40.2764 C.3         1 MOL       0.1144
     14 C4         58.3531   48.3935   39.0424 C.3         1 MOL       0.1184
     15 C5         58.2390   47.3219   37.9044 C.3         1 MOL       0.1134
     16 C6         57.6521   47.8756   36.5661 C.3         1 MOL       0.0730
     17 C1         60.2073   46.1022   38.7088 C.3         1 MOL       0.1884
     18 O2         60.9032   46.3831   41.0302 O.3         1 MOL      -0.3841
     19 O3         59.2082   48.6883   41.3115 O.3         1 MOL      -0.3864
     20 O4         57.0212   48.8322   39.4130 O.3         1 MOL      -0.3401
     21 O5         59.5429   46.7561   37.6077 O.3         1 MOL      -0.3405
     22 O6         56.6647   46.9789   36.0451 O.3         1 MOL      -0.3924
     23 C6         61.4948   42.6743   38.9182 C.3         1 MOL       0.0782
     24 C5         62.2911   43.3834   37.7916 C.3         1 MOL       0.1538
     25 C4         61.5985   44.6720   37.2466 C.3         1 MOL       0.1259
     26 C3         62.4322   45.2434   36.0658 C.3         1 MOL       0.1245
     27 C2         62.7506   44.1303   35.0360 C.3         1 MOL       0.0256
     28 O6         61.8042   43.2243   40.1986 O.3         1 MOL      -0.3922
     29 O5         62.4622   42.4502   36.7011 O.3         1 MOL      -0.3215
     30 O4         61.5144   45.6768   38.2817 O.3         1 MOL      -0.3398
     31 O3         61.7464   46.3211   35.4347 O.3         1 MOL      -0.3838
     32 N1         63.2913   42.9439   35.7248 N.4         1 MOL       0.3939
     33 H1         58.0365   51.2440   40.3905 H           1 MOL       0.0671
     34 H2         55.2741   52.5267   40.0305 H           1 MOL       0.0648
     35 H3         57.8535   53.2590   38.5678 H           1 MOL       0.0647
     36 H4         55.3597   51.8473   37.4394 H           1 MOL       0.0647
     37 H5         56.2012   52.9305   35.5610 H           1 MOL       0.0584
     38 H6         57.0778   51.3879   35.5101 H           1 MOL       0.0584
     39 H7         55.4861   50.0947   39.1389 H           1 MOL       0.0938
     40 H8         56.8337   51.2519   42.2375 H           1 MOL       0.2101
     41 H9         57.7452   53.5253   40.9709 H           1 MOL       0.2100
     42 H10        55.1482   54.0517   38.2484 H           1 MOL       0.2100
     43 H11        58.3484   53.2839   35.1732 H           1 MOL       0.2095
     44 H12        61.0862   47.8581   39.6248 H           1 MOL       0.0671
     45 H13        58.3534   46.9640   40.6651 H           1 MOL       0.0648
     46 H14        58.9811   49.2176   38.6835 H           1 MOL       0.0651
     47 H15        57.5714   46.5182   38.2552 H           1 MOL       0.0647
     48 H16        58.4508   47.9896   35.8193 H           1 MOL       0.0584
     49 H17        57.1785   48.8555   36.7213 H           1 MOL       0.0584
     50 H18        59.6312   45.2285   39.0247 H           1 MOL       0.0938
     51 H19        61.8658   46.3096   40.8630 H           1 MOL       0.2101
     52 H20        59.8090   49.3718   40.9491 H           1 MOL       0.2100
     53 H21        55.8843   47.1025   36.6284 H           1 MOL       0.2095
     54 H22        61.7520   41.6113   38.9425 H           1 MOL       0.0586
     55 H23        60.4196   42.7595   38.7411 H           1 MOL       0.0586
     56 H24        63.2776   43.6397   38.1987 H           1 MOL       0.0702
     57 H25        60.6122   44.3899   36.8570 H           1 MOL       0.0654
     58 H26        63.3739   45.6407   36.4523 H           1 MOL       0.0674
     59 H27        63.4987   44.4748   34.3231 H           1 MOL       0.0850
     60 H28        61.8482   43.8474   34.4872 H           1 MOL       0.0850
     61 H29        62.7657   43.0540   40.3150 H           1 MOL       0.2095
     62 H30        60.8898   45.9543   35.1292 H           1 MOL       0.2101
     63 H31        64.1924   43.1836   36.1444 H           1 MOL       0.2348
     64 H32        63.4501   42.2240   35.0170 H           1 MOL       0.2348
@<TRIPOS>BOND
     1     1     2   1
     2     6     1   1
     3     1     7   1
     4     2     3   1
     5     2     8   1
     6     4     3   1
     7     3     9   1
     8     4     5   1
     9    10     4   1
    10     5    11   1
    11     6    10   1
    12    20     6   1
    13    12    13   1
    14    17    12   1
    15    12    18   1
    16    13    14   1
    17    13    19   1
    18    15    14   1
    19    14    20   1
    20    15    16   1
    21    21    15   1
    22    16    22   1
    23    17    21   1
    24    30    17   1
    25    24    23   1
    26    23    28   1
    27    25    24   1
    28    24    29   1
    29    25    26   1
    30    25    30   1
    31    26    27   1
    32    26    31   1
    33    27    32   1
    34    29    32   1
    35     1    33   1
    36     2    34   1
    37     3    35   1
    38     4    36   1
    39     5    37   1
    40     5    38   1
    41     6    39   1
    42     7    40   1
    43     8    41   1
    44     9    42   1
    45    11    43   1
    46    12    44   1
    47    13    45   1
    48    14    46   1
    49    15    47   1
    50    16    48   1
    51    16    49   1
    52    17    50   1
    53    18    51   1
    54    19    52   1
    55    22    53   1
    56    23    54   1
    57    23    55   1
    58    24    56   1
    59    25    57   1
    60    26    58   1
    61    27    59   1
    62    27    60   1
    63    28    61   1
    64    31    62   1
    65    32    63   1
    66    32    64   1
@<TRIPOS>SUBSTRUCTURE
     1  MOL      1

