@<TRIPOS>MOLECULE
1w3l_ligand_036
    64    66
SMALL
GAST_HUCK
****
This file was generated by PARSER (from files_GN.cpp)

@<TRIPOS>ATOM
      1 C2         60.7194   43.7972   34.8848 C.3         1 MOL       0.1341
      2 C3         61.1462   42.3412   35.2130 C.3         1 MOL       0.1141
      3 C4         62.5822   42.3032   35.8194 C.3         1 MOL       0.1119
      4 C5         62.7261   43.3316   36.9827 C.3         1 MOL       0.1130
      5 C6         64.1842   43.5241   37.4729 C.3         1 MOL       0.0730
      6 C1         60.8975   44.6924   36.1396 C.3         1 MOL       0.1884
      7 O2         59.3602   43.8597   34.4643 O.3         1 MOL      -0.3841
      8 O3         61.0708   41.5256   34.0417 O.3         1 MOL      -0.3864
      9 O4         62.8727   40.9879   36.3016 O.3         1 MOL      -0.3865
     10 O5         62.2707   44.6345   36.5682 O.3         1 MOL      -0.3405
     11 O6         64.8975   42.2944   37.5797 O.3         1 MOL      -0.3924
     12 C2         58.5023   47.5370   38.7499 C.3         1 MOL       0.1341
     13 C3         58.8702   46.5582   37.5969 C.3         1 MOL       0.1144
     14 C4         60.1583   47.0078   36.8295 C.3         1 MOL       0.1184
     15 C5         61.3071   47.4282   37.8136 C.3         1 MOL       0.1134
     16 C6         62.4360   48.2036   37.0783 C.3         1 MOL       0.0730
     17 C1         59.7405   47.7307   39.6617 C.3         1 MOL       0.1884
     18 O2         57.4064   47.0107   39.4928 O.3         1 MOL      -0.3841
     19 O3         57.7651   46.4545   36.6955 O.3         1 MOL      -0.3864
     20 O4         60.5575   46.0594   35.8017 O.3         1 MOL      -0.3401
     21 O5         60.8151   48.2831   38.8690 O.3         1 MOL      -0.3405
     22 O6         63.7295   47.8866   37.5896 O.3         1 MOL      -0.3924
     23 C6         61.2925   46.7652   42.5456 C.3         1 MOL       0.0782
     24 C5         59.7543   47.0005   42.6581 C.3         1 MOL       0.1538
     25 C4         59.2382   48.3665   42.0864 C.3         1 MOL       0.1259
     26 C3         57.7209   48.5217   42.3898 C.3         1 MOL       0.1245
     27 C2         57.4286   48.2367   43.8874 C.3         1 MOL       0.0256
     28 O6         62.0240   47.8986   42.0795 O.3         1 MOL      -0.3922
     29 O5         59.3910   46.8954   44.0586 O.3         1 MOL      -0.3215
     30 O4         59.5267   48.7033   40.7045 O.3         1 MOL      -0.3398
     31 O3         57.2670   49.8333   42.0454 O.3         1 MOL      -0.3838
     32 N1         58.0311   46.9371   44.2596 N.4         1 MOL       0.3939
     33 H1         61.3429   44.1858   34.0768 H           1 MOL       0.0671
     34 H2         60.4433   41.9196   35.9392 H           1 MOL       0.0648
     35 H3         63.3008   42.5572   35.0377 H           1 MOL       0.0647
     36 H4         62.1305   42.9941   37.8416 H           1 MOL       0.0647
     37 H5         64.1749   43.9961   38.4599 H           1 MOL       0.0584
     38 H6         64.7282   44.1772   36.7881 H           1 MOL       0.0584
     39 H7         60.2370   44.3168   36.9298 H           1 MOL       0.0938
     40 H8         59.2743   43.1905   33.7547 H           1 MOL       0.2101
     41 H9         61.7933   41.8302   33.4436 H           1 MOL       0.2100
     42 H10        62.8040   40.3906   35.5247 H           1 MOL       0.2100
     43 H11        64.7235   41.9799   38.4967 H           1 MOL       0.2095
     44 H12        58.2147   48.5009   38.3327 H           1 MOL       0.0671
     45 H13        59.0300   45.5672   38.0400 H           1 MOL       0.0648
     46 H14        59.8713   47.9103   36.2802 H           1 MOL       0.0651
     47 H15        61.7439   46.5393   38.2765 H           1 MOL       0.0647
     48 H16        62.2833   49.2843   37.1754 H           1 MOL       0.0584
     49 H17        62.4452   47.9583   36.0128 H           1 MOL       0.0584
     50 H18        60.0541   46.7608   40.0608 H           1 MOL       0.0938
     51 H19        56.6240   47.1118   38.9128 H           1 MOL       0.2101
     52 H20        57.7171   45.5077   36.4522 H           1 MOL       0.2100
     53 H21        63.6643   47.9949   38.5619 H           1 MOL       0.2095
     54 H22        61.4788   45.9347   41.8515 H           1 MOL       0.0586
     55 H23        61.7177   46.4781   43.5158 H           1 MOL       0.0586
     56 H24        59.2474   46.1839   42.1358 H           1 MOL       0.0702
     57 H25        59.7452   49.1478   42.6694 H           1 MOL       0.0654
     58 H26        57.1579   47.8017   41.7949 H           1 MOL       0.0674
     59 H27        56.3498   48.1939   44.0555 H           1 MOL       0.0850
     60 H28        57.8517   49.0253   44.5141 H           1 MOL       0.0850
     61 H29        62.6761   47.5336   41.4508 H           1 MOL       0.2095
     62 H30        57.8038   50.4411   42.5954 H           1 MOL       0.2101
     63 H31        57.5809   46.1930   43.7113 H           1 MOL       0.2348
     64 H32        57.8479   46.7699   45.2527 H           1 MOL       0.2348
@<TRIPOS>BOND
     1     1     2   1
     2     6     1   1
     3     1     7   1
     4     2     3   1
     5     2     8   1
     6     4     3   1
     7     3     9   1
     8     4     5   1
     9    10     4   1
    10     5    11   1
    11     6    10   1
    12    20     6   1
    13    12    13   1
    14    17    12   1
    15    12    18   1
    16    13    14   1
    17    13    19   1
    18    15    14   1
    19    14    20   1
    20    15    16   1
    21    21    15   1
    22    16    22   1
    23    17    21   1
    24    30    17   1
    25    24    23   1
    26    23    28   1
    27    25    24   1
    28    24    29   1
    29    25    26   1
    30    25    30   1
    31    26    27   1
    32    26    31   1
    33    27    32   1
    34    29    32   1
    35     1    33   1
    36     2    34   1
    37     3    35   1
    38     4    36   1
    39     5    37   1
    40     5    38   1
    41     6    39   1
    42     7    40   1
    43     8    41   1
    44     9    42   1
    45    11    43   1
    46    12    44   1
    47    13    45   1
    48    14    46   1
    49    15    47   1
    50    16    48   1
    51    16    49   1
    52    17    50   1
    53    18    51   1
    54    19    52   1
    55    22    53   1
    56    23    54   1
    57    23    55   1
    58    24    56   1
    59    25    57   1
    60    26    58   1
    61    27    59   1
    62    27    60   1
    63    28    61   1
    64    31    62   1
    65    32    63   1
    66    32    64   1
@<TRIPOS>SUBSTRUCTURE
     1  MOL      1

