@<TRIPOS>MOLECULE
1w3l_ligand_003
    64    66
SMALL
GAST_HUCK
****
This file was generated by PARSER (from files_GN.cpp)

@<TRIPOS>ATOM
      1 C2         59.8133   49.8800   41.9725 C.3         1 MOL       0.1341
      2 C3         58.7506   50.5868   42.8523 C.3         1 MOL       0.1141
      3 C4         58.5610   52.0646   42.4018 C.3         1 MOL       0.1119
      4 C5         58.3106   52.1495   40.8623 C.3         1 MOL       0.1130
      5 C6         58.3267   53.6130   40.3470 C.3         1 MOL       0.0730
      6 C1         59.4132   50.0113   40.4754 C.3         1 MOL       0.1884
      7 O2         59.9261   48.5024   42.3482 O.3         1 MOL      -0.3841
      8 O3         59.1598   50.5302   44.2184 O.3         1 MOL      -0.3864
      9 O4         57.4812   52.6542   43.1268 O.3         1 MOL      -0.3865
     10 O5         59.3108   51.4081   40.1185 O.3         1 MOL      -0.3405
     11 O6         59.6592   54.1106   40.2238 O.3         1 MOL      -0.3924
     12 C2         61.4028   47.9013   36.3467 C.3         1 MOL       0.1341
     13 C3         61.3698   48.8859   37.5439 C.3         1 MOL       0.1144
     14 C4         60.1386   48.6825   38.4793 C.3         1 MOL       0.1184
     15 C5         59.8883   47.1577   38.7676 C.3         1 MOL       0.1134
     16 C6         58.5011   46.8412   39.3937 C.3         1 MOL       0.0730
     17 C1         61.2599   46.4614   36.8827 C.3         1 MOL       0.1884
     18 O2         62.6329   48.0228   35.6370 O.3         1 MOL      -0.3841
     19 O3         61.3704   50.2191   37.0425 O.3         1 MOL      -0.3864
     20 O4         60.4535   49.3877   39.7023 O.3         1 MOL      -0.3401
     21 O5         59.9862   46.3639   37.5580 O.3         1 MOL      -0.3405
     22 O6         58.5583   46.8096   40.8268 O.3         1 MOL      -0.3924
     23 C6         63.5645   44.0797   37.6558 C.3         1 MOL       0.0782
     24 C5         62.8779   43.5940   36.3543 C.3         1 MOL       0.1538
     25 C4         61.4196   44.1159   36.1028 C.3         1 MOL       0.1259
     26 C3         60.8245   43.3619   34.8801 C.3         1 MOL       0.1245
     27 C2         60.9826   41.8318   35.0490 C.3         1 MOL       0.0256
     28 O6         62.6703   43.9836   38.7635 O.3         1 MOL      -0.3922
     29 O5         62.8606   42.1515   36.4567 O.3         1 MOL      -0.3215
     30 O4         61.3509   45.5284   35.7878 O.3         1 MOL      -0.3398
     31 O3         59.4465   43.6807   34.7073 O.3         1 MOL      -0.3838
     32 N1         62.4008   41.5311   35.3267 N.4         1 MOL       0.3939
     33 H1         60.7849   50.3630   42.1253 H           1 MOL       0.0671
     34 H2         57.8001   50.0555   42.7595 H           1 MOL       0.0648
     35 H3         59.4706   52.6177   42.6510 H           1 MOL       0.0647
     36 H4         57.3247   51.7348   40.6401 H           1 MOL       0.0647
     37 H5         57.7672   54.2589   41.0299 H           1 MOL       0.0584
     38 H6         57.8510   53.6575   39.3620 H           1 MOL       0.0584
     39 H7         58.4523   49.5138   40.3113 H           1 MOL       0.0938
     40 H8         60.7076   48.1723   41.8550 H           1 MOL       0.2101
     41 H9         58.3880   50.8591   44.7323 H           1 MOL       0.2100
     42 H10        56.6841   52.1400   42.8722 H           1 MOL       0.2100
     43 H11        59.5556   55.0309   39.8999 H           1 MOL       0.2095
     44 H12        60.5832   48.1200   35.6602 H           1 MOL       0.0671
     45 H13        62.2835   48.7502   38.1325 H           1 MOL       0.0648
     46 H14        59.2602   49.1101   37.9782 H           1 MOL       0.0651
     47 H15        60.6495   46.8030   39.4667 H           1 MOL       0.0647
     48 H16        58.1501   45.8553   39.0542 H           1 MOL       0.0584
     49 H17        57.7559   47.5838   39.0800 H           1 MOL       0.0584
     50 H18        62.0736   46.2708   37.5852 H           1 MOL       0.0938
     51 H19        62.8868   48.9666   35.6683 H           1 MOL       0.2101
     52 H20        62.2858   50.3696   36.7265 H           1 MOL       0.2100
     53 H21        59.1021   46.0219   41.0319 H           1 MOL       0.2095
     54 H22        63.9244   45.1051   37.5514 H           1 MOL       0.0586
     55 H23        64.4402   43.4510   37.8540 H           1 MOL       0.0586
     56 H24        63.5159   43.8860   35.5126 H           1 MOL       0.0702
     57 H25        60.7944   43.8739   36.9672 H           1 MOL       0.0654
     58 H26        61.3540   43.6713   33.9722 H           1 MOL       0.0674
     59 H27        60.6932   41.3223   34.1274 H           1 MOL       0.0850
     60 H28        60.3614   41.4641   35.8696 H           1 MOL       0.0850
     61 H29        63.1993   43.5766   39.4778 H           1 MOL       0.2095
     62 H30        59.1612   43.1748   33.9155 H           1 MOL       0.2101
     63 H31        62.9588   41.8214   34.5215 H           1 MOL       0.2348
     64 H32        62.5063   40.5223   35.4482 H           1 MOL       0.2348
@<TRIPOS>BOND
     1     1     2   1
     2     6     1   1
     3     1     7   1
     4     2     3   1
     5     2     8   1
     6     4     3   1
     7     3     9   1
     8     4     5   1
     9    10     4   1
    10     5    11   1
    11     6    10   1
    12    20     6   1
    13    12    13   1
    14    17    12   1
    15    12    18   1
    16    13    14   1
    17    13    19   1
    18    15    14   1
    19    14    20   1
    20    15    16   1
    21    21    15   1
    22    16    22   1
    23    17    21   1
    24    30    17   1
    25    24    23   1
    26    23    28   1
    27    25    24   1
    28    24    29   1
    29    25    26   1
    30    25    30   1
    31    26    27   1
    32    26    31   1
    33    27    32   1
    34    29    32   1
    35     1    33   1
    36     2    34   1
    37     3    35   1
    38     4    36   1
    39     5    37   1
    40     5    38   1
    41     6    39   1
    42     7    40   1
    43     8    41   1
    44     9    42   1
    45    11    43   1
    46    12    44   1
    47    13    45   1
    48    14    46   1
    49    15    47   1
    50    16    48   1
    51    16    49   1
    52    17    50   1
    53    18    51   1
    54    19    52   1
    55    22    53   1
    56    23    54   1
    57    23    55   1
    58    24    56   1
    59    25    57   1
    60    26    58   1
    61    27    59   1
    62    27    60   1
    63    28    61   1
    64    31    62   1
    65    32    63   1
    66    32    64   1
@<TRIPOS>SUBSTRUCTURE
     1  MOL      1

