@<TRIPOS>MOLECULE
1w3l_ligand_020
    64    66
SMALL
GAST_HUCK
****
This file was generated by PARSER (from files_GN.cpp)

@<TRIPOS>ATOM
      1 C2         57.5071   50.3507   37.0902 C.3         1 MOL       0.1341
      2 C3         56.8722   51.7631   37.2456 C.3         1 MOL       0.1141
      3 C4         55.9868   51.8525   38.5216 C.3         1 MOL       0.1119
      4 C5         56.8042   51.3713   39.7536 C.3         1 MOL       0.1130
      5 C6         55.9476   51.3315   41.0458 C.3         1 MOL       0.0730
      6 C1         58.2283   49.9091   38.3989 C.3         1 MOL       0.1884
      7 O2         58.4065   50.3742   35.9790 O.3         1 MOL      -0.3841
      8 O3         56.1025   52.0744   36.0823 O.3         1 MOL      -0.3864
      9 O4         55.5372   53.1962   38.7172 O.3         1 MOL      -0.3865
     10 O5         57.3353   50.0496   39.5213 O.3         1 MOL      -0.3405
     11 O6         56.7500   50.9212   42.1508 O.3         1 MOL      -0.3924
     12 C2         62.0583   47.4996   36.9894 C.3         1 MOL       0.1341
     13 C3         61.0535   48.3063   37.8697 C.3         1 MOL       0.1144
     14 C4         59.5760   47.9415   37.5324 C.3         1 MOL       0.1184
     15 C5         59.4211   46.3840   37.5938 C.3         1 MOL       0.1134
     16 C6         58.0077   45.8918   37.1611 C.3         1 MOL       0.0730
     17 C1         61.7483   45.9714   37.0056 C.3         1 MOL       0.1884
     18 O2         63.4028   47.7195   37.4309 O.3         1 MOL      -0.3841
     19 O3         61.2688   49.7010   37.6729 O.3         1 MOL      -0.3864
     20 O4         58.6040   48.5150   38.4477 O.3         1 MOL      -0.3401
     21 O5         60.3630   45.7427   36.7201 O.3         1 MOL      -0.3405
     22 O6         57.1880   45.5647   38.2932 O.3         1 MOL      -0.3924
     23 C6         60.7575   42.4472   34.1717 C.3         1 MOL       0.0782
     24 C5         60.9415   43.4551   35.3419 C.3         1 MOL       0.1538
     25 C4         62.4112   43.8978   35.6636 C.3         1 MOL       0.1259
     26 C3         63.1126   42.9668   36.7016 C.3         1 MOL       0.1245
     27 C2         62.1559   42.4403   37.8022 C.3         1 MOL       0.0256
     28 O6         61.6039   41.3078   34.2523 O.3         1 MOL      -0.3922
     29 O5         60.2545   43.0132   36.5310 O.3         1 MOL      -0.3215
     30 O4         62.5461   45.3068   35.9967 O.3         1 MOL      -0.3398
     31 O3         63.6850   41.8177   36.0809 O.3         1 MOL      -0.3838
     32 N1         60.8731   41.9973   37.2161 N.4         1 MOL       0.3939
     33 H1         56.7171   49.6295   36.8659 H           1 MOL       0.0671
     34 H2         57.6714   52.5098   37.3262 H           1 MOL       0.0648
     35 H3         55.1082   51.2117   38.3874 H           1 MOL       0.0647
     36 H4         57.6292   52.0699   39.9316 H           1 MOL       0.0647
     37 H5         55.1163   50.6300   40.9327 H           1 MOL       0.0584
     38 H6         55.5411   52.3246   41.2681 H           1 MOL       0.0584
     39 H7         59.1071   50.5351   38.5650 H           1 MOL       0.0938
     40 H8         59.1036   51.0193   36.2085 H           1 MOL       0.2101
     41 H9         55.9919   53.0476   36.0823 H           1 MOL       0.2100
     42 H10        54.8232   53.3399   38.0626 H           1 MOL       0.2100
     43 H11        56.1342   50.9130   42.9158 H           1 MOL       0.2095
     44 H12        61.9881   47.8584   35.9608 H           1 MOL       0.0671
     45 H13        61.2351   48.0798   38.9276 H           1 MOL       0.0648
     46 H14        59.3749   48.2373   36.5045 H           1 MOL       0.0651
     47 H15        59.5864   46.0364   38.6270 H           1 MOL       0.0647
     48 H16        58.0963   44.9966   36.5385 H           1 MOL       0.0584
     49 H17        57.5025   46.6675   36.5732 H           1 MOL       0.0584
     50 H18        62.0057   45.5869   37.9990 H           1 MOL       0.0938
     51 H19        63.4082   47.5075   38.3860 H           1 MOL       0.2101
     52 H20        62.2082   49.8599   37.8781 H           1 MOL       0.2100
     53 H21        57.6078   44.7718   38.6914 H           1 MOL       0.2095
     54 H22        60.9395   42.9479   33.2132 H           1 MOL       0.0586
     55 H23        59.7165   42.0986   34.1744 H           1 MOL       0.0586
     56 H24        60.3934   44.3381   34.9982 H           1 MOL       0.0702
     57 H25        62.9726   43.8139   34.7291 H           1 MOL       0.0654
     58 H26        63.9324   43.5078   37.1722 H           1 MOL       0.0674
     59 H27        61.9494   43.2216   38.5409 H           1 MOL       0.0850
     60 H28        62.6117   41.5951   38.3359 H           1 MOL       0.0850
     61 H29        62.3201   41.4845   33.6027 H           1 MOL       0.2095
     62 H30        63.7586   42.0354   35.1300 H           1 MOL       0.2101
     63 H31        60.2637   41.7091   37.9880 H           1 MOL       0.2348
     64 H32        61.0147   41.1854   36.6029 H           1 MOL       0.2348
@<TRIPOS>BOND
     1     1     2   1
     2     6     1   1
     3     1     7   1
     4     2     3   1
     5     2     8   1
     6     4     3   1
     7     3     9   1
     8     4     5   1
     9    10     4   1
    10     5    11   1
    11     6    10   1
    12    20     6   1
    13    12    13   1
    14    17    12   1
    15    12    18   1
    16    13    14   1
    17    13    19   1
    18    15    14   1
    19    14    20   1
    20    15    16   1
    21    21    15   1
    22    16    22   1
    23    17    21   1
    24    30    17   1
    25    24    23   1
    26    23    28   1
    27    25    24   1
    28    24    29   1
    29    25    26   1
    30    25    30   1
    31    26    27   1
    32    26    31   1
    33    27    32   1
    34    29    32   1
    35     1    33   1
    36     2    34   1
    37     3    35   1
    38     4    36   1
    39     5    37   1
    40     5    38   1
    41     6    39   1
    42     7    40   1
    43     8    41   1
    44     9    42   1
    45    11    43   1
    46    12    44   1
    47    13    45   1
    48    14    46   1
    49    15    47   1
    50    16    48   1
    51    16    49   1
    52    17    50   1
    53    18    51   1
    54    19    52   1
    55    22    53   1
    56    23    54   1
    57    23    55   1
    58    24    56   1
    59    25    57   1
    60    26    58   1
    61    27    59   1
    62    27    60   1
    63    28    61   1
    64    31    62   1
    65    32    63   1
    66    32    64   1
@<TRIPOS>SUBSTRUCTURE
     1  MOL      1

