@<TRIPOS>MOLECULE
1w3l_ligand_059
    64    66
SMALL
GAST_HUCK
****
This file was generated by PARSER (from files_GN.cpp)

@<TRIPOS>ATOM
      1 C2         56.7515   51.0483   38.9310 C.3         1 MOL       0.1341
      2 C3         55.7001   52.0221   38.3287 C.3         1 MOL       0.1141
      3 C4         56.3478   52.9308   37.2511 C.3         1 MOL       0.1119
      4 C5         57.1379   52.0799   36.2124 C.3         1 MOL       0.1130
      5 C6         57.9225   52.9662   35.2118 C.3         1 MOL       0.0730
      6 C1         57.4794   50.2572   37.8089 C.3         1 MOL       0.1884
      7 O2         56.1168   50.1527   39.8486 O.3         1 MOL      -0.3841
      8 O3         55.1275   52.8315   39.3586 O.3         1 MOL      -0.3864
      9 O4         55.3356   53.6927   36.5977 O.3         1 MOL      -0.3865
     10 O5         58.0684   51.1795   36.8607 O.3         1 MOL      -0.3405
     11 O6         58.9804   53.6523   35.8748 O.3         1 MOL      -0.3924
     12 C2         60.6716   46.6792   36.9170 C.3         1 MOL       0.1341
     13 C3         60.2287   48.1318   37.2505 C.3         1 MOL       0.1144
     14 C4         58.8322   48.1539   37.9380 C.3         1 MOL       0.1184
     15 C5         58.8254   47.1668   39.1444 C.3         1 MOL       0.1134
     16 C6         57.4259   47.0276   39.7924 C.3         1 MOL       0.0730
     17 C1         60.5847   45.7840   38.1899 C.3         1 MOL       0.1884
     18 O2         61.9969   46.6798   36.3857 O.3         1 MOL      -0.3841
     19 O3         60.1924   48.9207   36.0641 O.3         1 MOL      -0.3864
     20 O4         58.5196   49.4774   38.4432 O.3         1 MOL      -0.3401
     21 O5         59.2444   45.8508   38.7314 O.3         1 MOL      -0.3405
     22 O6         57.4043   45.9581   40.7360 O.3         1 MOL      -0.3924
     23 C6         60.8145   44.3450   41.2120 C.3         1 MOL       0.0782
     24 C5         61.4917   43.4240   40.1642 C.3         1 MOL       0.1538
     25 C4         60.7352   43.3270   38.7832 C.3         1 MOL       0.1259
     26 C3         61.1992   42.0669   37.9889 C.3         1 MOL       0.1245
     27 C2         61.2956   40.8152   38.8874 C.3         1 MOL       0.0256
     28 O6         61.5739   44.3681   42.4289 O.3         1 MOL      -0.3922
     29 O5         61.5604   42.1261   40.8078 O.3         1 MOL      -0.3215
     30 O4         60.9404   44.4247   37.8524 O.3         1 MOL      -0.3398
     31 O3         60.3090   41.7995   36.9071 O.3         1 MOL      -0.3838
     32 N1         62.1343   41.1463   40.0488 N.4         1 MOL       0.3939
     33 H1         57.4910   51.6284   39.4962 H           1 MOL       0.0671
     34 H2         54.8921   51.4399   37.8710 H           1 MOL       0.0648
     35 H3         57.0334   53.6218   37.7472 H           1 MOL       0.0647
     36 H4         56.4281   51.4883   35.6323 H           1 MOL       0.0647
     37 H5         57.2589   53.7013   34.7493 H           1 MOL       0.0584
     38 H6         58.3527   52.3482   34.4184 H           1 MOL       0.0584
     39 H7         56.7390   49.6216   37.3069 H           1 MOL       0.0938
     40 H8         55.4702   49.6450   39.3132 H           1 MOL       0.2101
     41 H9         54.6290   52.2106   39.9311 H           1 MOL       0.2100
     42 H10        54.9771   54.2954   37.2826 H           1 MOL       0.2100
     43 H11        59.2604   54.3718   35.2755 H           1 MOL       0.2095
     44 H12        59.9974   46.2761   36.1576 H           1 MOL       0.0671
     45 H13        60.9649   48.5845   37.9233 H           1 MOL       0.0648
     46 H14        58.0911   47.8022   37.2126 H           1 MOL       0.0651
     47 H15        59.5060   47.5376   39.9178 H           1 MOL       0.0647
     48 H16        56.6705   46.8367   39.0243 H           1 MOL       0.0584
     49 H17        57.1671   47.9517   40.3190 H           1 MOL       0.0584
     50 H18        61.3202   46.1448   38.9264 H           1 MOL       0.0938
     51 H19        62.1221   45.7800   36.0019 H           1 MOL       0.2101
     52 H20        61.1300   49.1181   35.8548 H           1 MOL       0.2100
     53 H21        56.4831   45.9434   41.0739 H           1 MOL       0.2095
     54 H22        59.8039   43.9791   41.4323 H           1 MOL       0.0586
     55 H23        60.7410   45.3704   40.8460 H           1 MOL       0.0586
     56 H24        62.5090   43.7838   39.9791 H           1 MOL       0.0702
     57 H25        59.6641   43.2199   38.9826 H           1 MOL       0.0654
     58 H26        62.1900   42.2528   37.5635 H           1 MOL       0.0674
     59 H27        61.7550   39.9906   38.3384 H           1 MOL       0.0850
     60 H28        60.3031   40.5027   39.2234 H           1 MOL       0.0850
     61 H29        61.0940   44.9973   43.0174 H           1 MOL       0.2095
     62 H30        60.4435   40.8523   36.6871 H           1 MOL       0.2101
     63 H31        63.0537   41.4658   39.7410 H           1 MOL       0.2348
     64 H32        62.2475   40.3121   40.6271 H           1 MOL       0.2348
@<TRIPOS>BOND
     1     1     2   1
     2     6     1   1
     3     1     7   1
     4     2     3   1
     5     2     8   1
     6     4     3   1
     7     3     9   1
     8     4     5   1
     9    10     4   1
    10     5    11   1
    11     6    10   1
    12    20     6   1
    13    12    13   1
    14    17    12   1
    15    12    18   1
    16    13    14   1
    17    13    19   1
    18    15    14   1
    19    14    20   1
    20    15    16   1
    21    21    15   1
    22    16    22   1
    23    17    21   1
    24    30    17   1
    25    24    23   1
    26    23    28   1
    27    25    24   1
    28    24    29   1
    29    25    26   1
    30    25    30   1
    31    26    27   1
    32    26    31   1
    33    27    32   1
    34    29    32   1
    35     1    33   1
    36     2    34   1
    37     3    35   1
    38     4    36   1
    39     5    37   1
    40     5    38   1
    41     6    39   1
    42     7    40   1
    43     8    41   1
    44     9    42   1
    45    11    43   1
    46    12    44   1
    47    13    45   1
    48    14    46   1
    49    15    47   1
    50    16    48   1
    51    16    49   1
    52    17    50   1
    53    18    51   1
    54    19    52   1
    55    22    53   1
    56    23    54   1
    57    23    55   1
    58    24    56   1
    59    25    57   1
    60    26    58   1
    61    27    59   1
    62    27    60   1
    63    28    61   1
    64    31    62   1
    65    32    63   1
    66    32    64   1
@<TRIPOS>SUBSTRUCTURE
     1  MOL      1

