@<TRIPOS>MOLECULE
1w3l_ligand_002
    64    66
SMALL
GAST_HUCK
****
This file was generated by PARSER (from files_GN.cpp)

@<TRIPOS>ATOM
      1 C2         57.3870   51.2457   36.9775 C.3         1 MOL       0.1341
      2 C3         56.1457   52.1486   37.2100 C.3         1 MOL       0.1141
      3 C4         55.0535   51.3920   38.0177 C.3         1 MOL       0.1119
      4 C5         55.6629   50.8196   39.3356 C.3         1 MOL       0.1130
      5 C6         54.6814   49.9262   40.1325 C.3         1 MOL       0.0730
      6 C1         57.8956   50.6796   38.3363 C.3         1 MOL       0.1884
      7 O2         58.4164   51.9952   36.3329 O.3         1 MOL      -0.3841
      8 O3         55.6003   52.5875   35.9653 O.3         1 MOL      -0.3864
      9 O4         53.9700   52.2744   38.2958 O.3         1 MOL      -0.3865
     10 O5         56.8296   50.0123   39.0383 O.3         1 MOL      -0.3405
     11 O6         53.5610   50.6690   40.6039 O.3         1 MOL      -0.3924
     12 C2         61.4718   47.9012   36.1400 C.3         1 MOL       0.1341
     13 C3         60.9334   48.9578   37.1358 C.3         1 MOL       0.1144
     14 C4         59.3911   48.8411   37.3095 C.3         1 MOL       0.1184
     15 C5         59.0282   47.3651   37.6896 C.3         1 MOL       0.1134
     16 C6         57.5132   47.0568   37.7123 C.3         1 MOL       0.0730
     17 C1         61.0477   46.4903   36.6124 C.3         1 MOL       0.1884
     18 O2         62.8930   47.9611   36.0238 O.3         1 MOL      -0.3841
     19 O3         61.2669   50.2706   36.6977 O.3         1 MOL      -0.3864
     20 O4         59.0580   49.8220   38.3227 O.3         1 MOL      -0.3401
     21 O5         59.6124   46.4305   36.7547 O.3         1 MOL      -0.3405
     22 O6         56.9016   47.3133   36.4481 O.3         1 MOL      -0.3924
     23 C6         63.6079   44.2275   37.4785 C.3         1 MOL       0.0782
     24 C5         62.9233   43.6310   36.2264 C.3         1 MOL       0.1538
     25 C4         61.4692   44.1461   35.9773 C.3         1 MOL       0.1259
     26 C3         60.8448   43.3477   34.7972 C.3         1 MOL       0.1245
     27 C2         61.0023   41.8264   35.0313 C.3         1 MOL       0.0256
     28 O6         62.7719   44.0755   38.6239 O.3         1 MOL      -0.3922
     29 O5         62.9108   42.1929   36.3945 O.3         1 MOL      -0.3215
     30 O4         61.4795   45.5429   35.6178 O.3         1 MOL      -0.3398
     31 O3         59.4655   43.6894   34.6460 O.3         1 MOL      -0.3838
     32 N1         62.4188   41.5295   35.2999 N.4         1 MOL       0.3939
     33 H1         57.0899   50.4246   36.3245 H           1 MOL       0.0671
     34 H2         56.4479   53.0408   37.7690 H           1 MOL       0.0648
     35 H3         54.6744   50.5637   37.4155 H           1 MOL       0.0647
     36 H4         55.9618   51.6507   39.9867 H           1 MOL       0.0647
     37 H5         55.1963   49.5061   40.9994 H           1 MOL       0.0584
     38 H6         54.3291   49.1048   39.5065 H           1 MOL       0.0584
     39 H7         58.2118   51.5290   38.9476 H           1 MOL       0.0938
     40 H8         58.2860   51.8486   35.3703 H           1 MOL       0.2101
     41 H9         56.3101   53.0994   35.5287 H           1 MOL       0.2100
     42 H10        53.5236   52.4144   37.4376 H           1 MOL       0.2100
     43 H11        53.0043   50.0123   41.0817 H           1 MOL       0.2095
     44 H12        61.0500   48.0889   35.1458 H           1 MOL       0.0671
     45 H13        61.4143   48.8087   38.1058 H           1 MOL       0.0648
     46 H14        58.9425   49.0840   36.3418 H           1 MOL       0.0651
     47 H15        59.4166   47.1550   38.6888 H           1 MOL       0.0647
     48 H16        57.0128   47.6508   38.4746 H           1 MOL       0.0584
     49 H17        57.3566   46.0060   37.9639 H           1 MOL       0.0584
     50 H18        61.5194   46.2795   37.5760 H           1 MOL       0.0938
     51 H19        63.1383   48.8884   36.2319 H           1 MOL       0.2101
     52 H20        62.2459   50.3086   36.6887 H           1 MOL       0.2100
     53 H21        55.9744   46.9880   36.5412 H           1 MOL       0.2095
     54 H22        63.8355   45.2861   37.3325 H           1 MOL       0.0586
     55 H23        64.5535   43.7035   37.6545 H           1 MOL       0.0586
     56 H24        63.5471   43.8782   35.3613 H           1 MOL       0.0702
     57 H25        60.8577   43.9499   36.8649 H           1 MOL       0.0654
     58 H26        61.3575   43.6178   33.8651 H           1 MOL       0.0674
     59 H27        60.6936   41.2798   34.1406 H           1 MOL       0.0850
     60 H28        60.3875   41.5015   35.8741 H           1 MOL       0.0850
     61 H29        63.3468   43.6866   39.3176 H           1 MOL       0.2095
     62 H30        59.1560   43.1726   33.8753 H           1 MOL       0.2101
     63 H31        62.9600   41.7929   34.4738 H           1 MOL       0.2348
     64 H32        62.5210   40.5264   35.4454 H           1 MOL       0.2348
@<TRIPOS>BOND
     1     1     2   1
     2     6     1   1
     3     1     7   1
     4     2     3   1
     5     2     8   1
     6     4     3   1
     7     3     9   1
     8     4     5   1
     9    10     4   1
    10     5    11   1
    11     6    10   1
    12    20     6   1
    13    12    13   1
    14    17    12   1
    15    12    18   1
    16    13    14   1
    17    13    19   1
    18    15    14   1
    19    14    20   1
    20    15    16   1
    21    21    15   1
    22    16    22   1
    23    17    21   1
    24    30    17   1
    25    24    23   1
    26    23    28   1
    27    25    24   1
    28    24    29   1
    29    25    26   1
    30    25    30   1
    31    26    27   1
    32    26    31   1
    33    27    32   1
    34    29    32   1
    35     1    33   1
    36     2    34   1
    37     3    35   1
    38     4    36   1
    39     5    37   1
    40     5    38   1
    41     6    39   1
    42     7    40   1
    43     8    41   1
    44     9    42   1
    45    11    43   1
    46    12    44   1
    47    13    45   1
    48    14    46   1
    49    15    47   1
    50    16    48   1
    51    16    49   1
    52    17    50   1
    53    18    51   1
    54    19    52   1
    55    22    53   1
    56    23    54   1
    57    23    55   1
    58    24    56   1
    59    25    57   1
    60    26    58   1
    61    27    59   1
    62    27    60   1
    63    28    61   1
    64    31    62   1
    65    32    63   1
    66    32    64   1
@<TRIPOS>SUBSTRUCTURE
     1  MOL      1

