@<TRIPOS>MOLECULE
1w3l_ligand_021
    64    66
SMALL
GAST_HUCK
****
This file was generated by PARSER (from files_GN.cpp)

@<TRIPOS>ATOM
      1 C2         56.8194   51.2625   39.0506 C.3         1 MOL       0.1341
      2 C3         55.6805   52.1400   38.4660 C.3         1 MOL       0.1141
      3 C4         56.2300   53.0876   37.3651 C.3         1 MOL       0.1119
      4 C5         57.0455   52.2887   36.3022 C.3         1 MOL       0.1130
      5 C6         57.7522   53.2192   35.2869 C.3         1 MOL       0.0730
      6 C1         57.5801   50.5347   37.9127 C.3         1 MOL       0.1884
      7 O2         56.2940   50.2947   39.9580 O.3         1 MOL      -0.3841
      8 O3         55.0787   52.9239   39.4966 O.3         1 MOL      -0.3864
      9 O4         55.1467   53.7818   36.7394 O.3         1 MOL      -0.3865
     10 O5         58.0577   51.4757   36.9335 O.3         1 MOL      -0.3405
     11 O6         58.9092   53.7966   35.8823 O.3         1 MOL      -0.3924
     12 C2         59.9512   46.6407   36.8029 C.3         1 MOL       0.1341
     13 C3         59.5993   48.1513   36.9212 C.3         1 MOL       0.1144
     14 C4         58.9208   48.4751   38.2850 C.3         1 MOL       0.1184
     15 C5         59.7958   47.9193   39.4499 C.3         1 MOL       0.1134
     16 C6         59.1561   48.1238   40.8469 C.3         1 MOL       0.0730
     17 C1         60.6662   46.0998   38.0705 C.3         1 MOL       0.1884
     18 O2         60.7887   46.4242   35.6657 O.3         1 MOL      -0.3841
     19 O3         58.7337   48.5338   35.8525 O.3         1 MOL      -0.3864
     20 O4         58.7432   49.8940   38.4748 O.3         1 MOL      -0.3401
     21 O5         59.9775   46.4982   39.2719 O.3         1 MOL      -0.3405
     22 O6         59.1173   49.5003   41.2139 O.3         1 MOL      -0.3924
     23 C6         61.3071   42.3465   35.1249 C.3         1 MOL       0.0782
     24 C5         60.5777   43.0282   36.3147 C.3         1 MOL       0.1538
     25 C4         61.4881   43.8849   37.2477 C.3         1 MOL       0.1259
     26 C3         62.3589   42.9937   38.1771 C.3         1 MOL       0.1245
     27 C2         61.5051   41.8740   38.8287 C.3         1 MOL       0.0256
     28 O6         60.3786   41.6457   34.2966 O.3         1 MOL      -0.3922
     29 O5         59.8365   42.0876   37.1174 O.3         1 MOL      -0.3215
     30 O4         60.6223   44.6598   38.1092 O.3         1 MOL      -0.3398
     31 O3         63.4616   42.4393   37.4654 O.3         1 MOL      -0.3838
     32 N1         60.6069   41.2161   37.8492 N.4         1 MOL       0.3939
     33 H1         57.5207   51.8991   39.5980 H           1 MOL       0.0671
     34 H2         54.9112   51.4963   38.0335 H           1 MOL       0.0648
     35 H3         56.8825   53.8296   37.8392 H           1 MOL       0.0647
     36 H4         56.3619   51.6404   35.7444 H           1 MOL       0.0647
     37 H5         57.0772   54.0083   34.9480 H           1 MOL       0.0584
     38 H6         58.0566   52.6426   34.4108 H           1 MOL       0.0584
     39 H7         56.9007   49.8223   37.4312 H           1 MOL       0.0938
     40 H8         56.0576   50.7945   40.7657 H           1 MOL       0.2101
     41 H9         54.5269   52.3023   40.0136 H           1 MOL       0.2100
     42 H10        54.7805   54.3745   37.4320 H           1 MOL       0.2100
     43 H11        59.2213   54.4878   35.2614 H           1 MOL       0.2095
     44 H12        59.0244   46.0747   36.6634 H           1 MOL       0.0671
     45 H13        60.5201   48.7342   36.8276 H           1 MOL       0.0648
     46 H14        57.9553   47.9582   38.3308 H           1 MOL       0.0651
     47 H15        60.7757   48.4136   39.4508 H           1 MOL       0.0647
     48 H16        59.7469   47.5942   41.5996 H           1 MOL       0.0584
     49 H17        58.1418   47.7249   40.8594 H           1 MOL       0.0584
     50 H18        61.6990   46.4552   38.1253 H           1 MOL       0.0938
     51 H19        60.1980   46.4994   34.8938 H           1 MOL       0.2101
     52 H20        58.7060   47.7757   35.2265 H           1 MOL       0.2100
     53 H21        58.6893   49.5159   42.1010 H           1 MOL       0.2095
     54 H22        62.0446   41.6252   35.4718 H           1 MOL       0.0586
     55 H23        61.8156   43.0930   34.5104 H           1 MOL       0.0586
     56 H24        59.8420   43.7065   35.8735 H           1 MOL       0.0702
     57 H25        62.1446   44.5247   36.6434 H           1 MOL       0.0654
     58 H26        62.7812   43.6223   38.9699 H           1 MOL       0.0674
     59 H27        60.8859   42.3031   39.6209 H           1 MOL       0.0850
     60 H28        62.1529   41.1204   39.2825 H           1 MOL       0.0850
     61 H29        59.9773   42.3266   33.7057 H           1 MOL       0.2095
     62 H30        64.1325   42.2592   38.1587 H           1 MOL       0.2101
     63 H31        59.9711   40.6125   38.3745 H           1 MOL       0.2348
     64 H32        61.1309   40.6203   37.2027 H           1 MOL       0.2348
@<TRIPOS>BOND
     1     1     2   1
     2     6     1   1
     3     1     7   1
     4     2     3   1
     5     2     8   1
     6     4     3   1
     7     3     9   1
     8     4     5   1
     9    10     4   1
    10     5    11   1
    11     6    10   1
    12    20     6   1
    13    12    13   1
    14    17    12   1
    15    12    18   1
    16    13    14   1
    17    13    19   1
    18    15    14   1
    19    14    20   1
    20    15    16   1
    21    21    15   1
    22    16    22   1
    23    17    21   1
    24    30    17   1
    25    24    23   1
    26    23    28   1
    27    25    24   1
    28    24    29   1
    29    25    26   1
    30    25    30   1
    31    26    27   1
    32    26    31   1
    33    27    32   1
    34    29    32   1
    35     1    33   1
    36     2    34   1
    37     3    35   1
    38     4    36   1
    39     5    37   1
    40     5    38   1
    41     6    39   1
    42     7    40   1
    43     8    41   1
    44     9    42   1
    45    11    43   1
    46    12    44   1
    47    13    45   1
    48    14    46   1
    49    15    47   1
    50    16    48   1
    51    16    49   1
    52    17    50   1
    53    18    51   1
    54    19    52   1
    55    22    53   1
    56    23    54   1
    57    23    55   1
    58    24    56   1
    59    25    57   1
    60    26    58   1
    61    27    59   1
    62    27    60   1
    63    28    61   1
    64    31    62   1
    65    32    63   1
    66    32    64   1
@<TRIPOS>SUBSTRUCTURE
     1  MOL      1

