@<TRIPOS>MOLECULE
1w3l_ligand_009
    64    66
SMALL
GAST_HUCK
****
This file was generated by PARSER (from files_GN.cpp)

@<TRIPOS>ATOM
      1 C2         62.0020   50.9019   41.0992 C.3         1 MOL       0.1341
      2 C3         63.1790   51.3121   42.0247 C.3         1 MOL       0.1141
      3 C4         63.1752   50.4528   43.3170 C.3         1 MOL       0.1119
      4 C5         63.1624   48.9325   42.9606 C.3         1 MOL       0.1130
      5 C6         62.9575   48.0271   44.1986 C.3         1 MOL       0.0730
      6 C1         62.1012   49.3816   40.7939 C.3         1 MOL       0.1884
      7 O2         62.0109   51.6657   39.8970 O.3         1 MOL      -0.3841
      8 O3         63.1103   52.6983   42.3539 O.3         1 MOL      -0.3864
      9 O4         64.2807   50.8001   44.1527 O.3         1 MOL      -0.3865
     10 O5         62.0810   48.6498   42.0395 O.3         1 MOL      -0.3405
     11 O6         64.1223   47.9731   45.0169 O.3         1 MOL      -0.3924
     12 C2         60.3161   45.2660   39.1582 C.3         1 MOL       0.1341
     13 C3         60.2896   46.5898   39.9761 C.3         1 MOL       0.1144
     14 C4         61.0848   47.7217   39.2527 C.3         1 MOL       0.1184
     15 C5         60.5095   47.8841   37.8083 C.3         1 MOL       0.1134
     16 C6         61.2734   48.9279   36.9574 C.3         1 MOL       0.0730
     17 C1         59.9003   45.5035   37.6713 C.3         1 MOL       0.1884
     18 O2         59.4473   44.3074   39.7631 O.3         1 MOL      -0.3841
     19 O3         60.8467   46.3328   41.2687 O.3         1 MOL      -0.3864
     20 O4         60.9808   48.9874   39.9613 O.3         1 MOL      -0.3401
     21 O5         60.5834   46.6313   37.0890 O.3         1 MOL      -0.3405
     22 O6         62.5600   48.4445   36.5640 O.3         1 MOL      -0.3924
     23 C6         63.6386   44.2393   35.3694 C.3         1 MOL       0.0782
     24 C5         62.0973   44.4476   35.3426 C.3         1 MOL       0.1538
     25 C4         61.3450   43.7493   36.5341 C.3         1 MOL       0.1259
     26 C3         61.0920   42.2356   36.2289 C.3         1 MOL       0.1245
     27 C2         60.5985   42.0260   34.7769 C.3         1 MOL       0.0256
     28 O6         64.2783   45.0874   36.3274 O.3         1 MOL      -0.3922
     29 O5         61.5274   44.0863   34.0697 O.3         1 MOL      -0.3215
     30 O4         60.0544   44.3424   36.8207 O.3         1 MOL      -0.3398
     31 O3         62.2832   41.4704   36.4433 O.3         1 MOL      -0.3838
     32 N1         61.4926   42.7350   33.8395 N.4         1 MOL       0.3939
     33 H1         61.0544   51.1046   41.6088 H           1 MOL       0.0671
     34 H2         64.1192   51.1532   41.4852 H           1 MOL       0.0648
     35 H3         62.2684   50.6850   43.8809 H           1 MOL       0.0647
     36 H4         64.1116   48.6575   42.4868 H           1 MOL       0.0647
     37 H5         62.7380   47.0100   43.8755 H           1 MOL       0.0584
     38 H6         62.1137   48.3719   44.7986 H           1 MOL       0.0584
     39 H7         63.0420   49.1966   40.2593 H           1 MOL       0.0938
     40 H8         62.8434   51.4250   39.4380 H           1 MOL       0.2101
     41 H9         63.9744   52.8773   42.7858 H           1 MOL       0.2100
     42 H10        65.0425   50.9441   43.5570 H           1 MOL       0.2100
     43 H11        64.2418   48.8800   45.3684 H           1 MOL       0.2095
     44 H12        61.3433   44.8846   39.2033 H           1 MOL       0.0671
     45 H13        59.2554   46.9072   40.1170 H           1 MOL       0.0648
     46 H14        62.1270   47.3964   39.1358 H           1 MOL       0.0651
     47 H15        59.4606   48.2087   37.8766 H           1 MOL       0.0647
     48 H16        61.4002   49.8608   37.5129 H           1 MOL       0.0584
     49 H17        60.6934   49.1426   36.0511 H           1 MOL       0.0584
     50 H18        58.8345   45.7378   37.6574 H           1 MOL       0.0938
     51 H19        59.5516   43.4966   39.2173 H           1 MOL       0.2101
     52 H20        61.7975   46.1452   41.1038 H           1 MOL       0.2100
     53 H21        62.9378   49.1711   36.0313 H           1 MOL       0.2095
     54 H22        64.0486   44.4745   34.3852 H           1 MOL       0.0586
     55 H23        63.9037   43.2065   35.5874 H           1 MOL       0.0586
     56 H24        61.9464   45.5233   35.4101 H           1 MOL       0.0702
     57 H25        61.9671   43.7847   37.4308 H           1 MOL       0.0654
     58 H26        60.3390   41.8433   36.9184 H           1 MOL       0.0674
     59 H27        59.5810   42.4124   34.6656 H           1 MOL       0.0850
     60 H28        60.5974   40.9590   34.5308 H           1 MOL       0.0850
     61 H29        63.8994   44.8326   37.1971 H           1 MOL       0.2095
     62 H30        62.0521   40.5477   36.2133 H           1 MOL       0.2101
     63 H31        61.1439   42.5890   32.8881 H           1 MOL       0.2348
     64 H32        62.4416   42.3501   33.9031 H           1 MOL       0.2348
@<TRIPOS>BOND
     1     1     2   1
     2     6     1   1
     3     1     7   1
     4     2     3   1
     5     2     8   1
     6     4     3   1
     7     3     9   1
     8     4     5   1
     9    10     4   1
    10     5    11   1
    11     6    10   1
    12    20     6   1
    13    12    13   1
    14    17    12   1
    15    12    18   1
    16    13    14   1
    17    13    19   1
    18    15    14   1
    19    14    20   1
    20    15    16   1
    21    21    15   1
    22    16    22   1
    23    17    21   1
    24    30    17   1
    25    24    23   1
    26    23    28   1
    27    25    24   1
    28    24    29   1
    29    25    26   1
    30    25    30   1
    31    26    27   1
    32    26    31   1
    33    27    32   1
    34    29    32   1
    35     1    33   1
    36     2    34   1
    37     3    35   1
    38     4    36   1
    39     5    37   1
    40     5    38   1
    41     6    39   1
    42     7    40   1
    43     8    41   1
    44     9    42   1
    45    11    43   1
    46    12    44   1
    47    13    45   1
    48    14    46   1
    49    15    47   1
    50    16    48   1
    51    16    49   1
    52    17    50   1
    53    18    51   1
    54    19    52   1
    55    22    53   1
    56    23    54   1
    57    23    55   1
    58    24    56   1
    59    25    57   1
    60    26    58   1
    61    27    59   1
    62    27    60   1
    63    28    61   1
    64    31    62   1
    65    32    63   1
    66    32    64   1
@<TRIPOS>SUBSTRUCTURE
     1  MOL      1

