@<TRIPOS>MOLECULE
1w3l_ligand_027
    64    66
SMALL
GAST_HUCK
****
This file was generated by PARSER (from files_GN.cpp)

@<TRIPOS>ATOM
      1 C2         54.4535   47.1774   39.5112 C.3         1 MOL       0.1341
      2 C3         53.0543   46.5788   39.8243 C.3         1 MOL       0.1141
      3 C4         53.0807   45.0248   39.7821 C.3         1 MOL       0.1119
      4 C5         54.2284   44.4662   40.6798 C.3         1 MOL       0.1130
      5 C6         54.4107   42.9315   40.5308 C.3         1 MOL       0.0730
      6 C1         55.5359   46.5290   40.4214 C.3         1 MOL       0.1884
      7 O2         54.4269   48.5929   39.7053 O.3         1 MOL      -0.3841
      8 O3         52.0993   47.0586   38.8757 O.3         1 MOL      -0.3864
      9 O4         51.8189   44.5138   40.2145 O.3         1 MOL      -0.3865
     10 O5         55.4889   45.0846   40.3324 O.3         1 MOL      -0.3405
     11 O6         53.5307   42.1935   41.3769 O.3         1 MOL      -0.3924
     12 C2         58.9237   46.9177   36.9156 C.3         1 MOL       0.1341
     13 C3         58.0689   47.5480   38.0470 C.3         1 MOL       0.1144
     14 C4         57.6227   46.4514   39.0513 C.3         1 MOL       0.1184
     15 C5         58.9114   45.7687   39.6157 C.3         1 MOL       0.1134
     16 C6         58.6261   44.6266   40.6277 C.3         1 MOL       0.0730
     17 C1         60.1188   46.1020   37.4870 C.3         1 MOL       0.1884
     18 O2         59.3786   47.9404   36.0273 O.3         1 MOL      -0.3841
     19 O3         56.9255   48.1863   37.4814 O.3         1 MOL      -0.3864
     20 O4         56.8574   47.0375   40.1275 O.3         1 MOL      -0.3401
     21 O5         59.6868   45.1998   38.5335 O.3         1 MOL      -0.3405
     22 O6         57.7855   43.6141   40.0720 O.3         1 MOL      -0.3924
     23 C6         62.9569   44.0352   38.0662 C.3         1 MOL       0.0782
     24 C5         62.4699   43.6244   36.6564 C.3         1 MOL       0.1538
     25 C4         60.9848   43.9970   36.3583 C.3         1 MOL       0.1259
     26 C3         60.6161   43.4591   34.9472 C.3         1 MOL       0.1245
     27 C2         60.9449   41.9456   34.8557 C.3         1 MOL       0.0256
     28 O6         62.2248   43.3615   39.0885 O.3         1 MOL      -0.3922
     29 O5         62.6287   42.1936   36.5345 O.3         1 MOL      -0.3215
     30 O4         60.7688   45.4290   36.3813 O.3         1 MOL      -0.3398
     31 O3         59.2331   43.6904   34.6874 O.3         1 MOL      -0.3838
     32 N1         62.3416   41.7102   35.2827 N.4         1 MOL       0.3939
     33 H1         54.6956   46.9752   38.4652 H           1 MOL       0.0671
     34 H2         52.7376   46.8984   40.8220 H           1 MOL       0.0648
     35 H3         53.2470   44.7040   38.7480 H           1 MOL       0.0647
     36 H4         54.0080   44.6798   41.7308 H           1 MOL       0.0647
     37 H5         55.4311   42.6567   40.8113 H           1 MOL       0.0584
     38 H6         54.2484   42.6217   39.4921 H           1 MOL       0.0584
     39 H7         55.3354   46.8194   41.4582 H           1 MOL       0.0938
     40 H8         55.2632   48.9288   39.3214 H           1 MOL       0.2101
     41 H9         51.7328   47.8808   39.2664 H           1 MOL       0.2100
     42 H10        51.1886   44.7297   39.4949 H           1 MOL       0.2100
     43 H11        52.6259   42.4500   41.0998 H           1 MOL       0.2095
     44 H12        58.2795   46.2354   36.3517 H           1 MOL       0.0671
     45 H13        58.6544   48.3121   38.5676 H           1 MOL       0.0648
     46 H14        57.0486   45.7017   38.4955 H           1 MOL       0.0651
     47 H15        59.5174   46.5183   40.1437 H           1 MOL       0.0647
     48 H16        58.1479   45.0247   41.5258 H           1 MOL       0.0584
     49 H17        59.5723   44.1610   40.9293 H           1 MOL       0.0584
     50 H18        60.8488   46.7939   37.9139 H           1 MOL       0.0938
     51 H19        59.1623   47.6044   35.1312 H           1 MOL       0.2101
     52 H20        57.2817   48.9045   36.9118 H           1 MOL       0.2100
     53 H21        58.3133   43.2204   39.3381 H           1 MOL       0.2095
     54 H22        62.8633   45.1145   38.2127 H           1 MOL       0.0586
     55 H23        64.0161   43.7766   38.1654 H           1 MOL       0.0586
     56 H24        63.1178   44.1221   35.9290 H           1 MOL       0.0702
     57 H25        60.3369   43.4710   37.0640 H           1 MOL       0.0654
     58 H26        61.1908   43.9950   34.1849 H           1 MOL       0.0674
     59 H27        60.8278   41.5989   33.8251 H           1 MOL       0.0850
     60 H28        60.2661   41.3719   35.4951 H           1 MOL       0.0850
     61 H29        62.9052   43.1087   39.7505 H           1 MOL       0.2095
     62 H30        59.0197   43.1556   33.8947 H           1 MOL       0.2101
     63 H31        62.9563   42.1543   34.6026 H           1 MOL       0.2348
     64 H32        62.5164   40.7004   35.2700 H           1 MOL       0.2348
@<TRIPOS>BOND
     1     1     2   1
     2     6     1   1
     3     1     7   1
     4     2     3   1
     5     2     8   1
     6     4     3   1
     7     3     9   1
     8     4     5   1
     9    10     4   1
    10     5    11   1
    11     6    10   1
    12    20     6   1
    13    12    13   1
    14    17    12   1
    15    12    18   1
    16    13    14   1
    17    13    19   1
    18    15    14   1
    19    14    20   1
    20    15    16   1
    21    21    15   1
    22    16    22   1
    23    17    21   1
    24    30    17   1
    25    24    23   1
    26    23    28   1
    27    25    24   1
    28    24    29   1
    29    25    26   1
    30    25    30   1
    31    26    27   1
    32    26    31   1
    33    27    32   1
    34    29    32   1
    35     1    33   1
    36     2    34   1
    37     3    35   1
    38     4    36   1
    39     5    37   1
    40     5    38   1
    41     6    39   1
    42     7    40   1
    43     8    41   1
    44     9    42   1
    45    11    43   1
    46    12    44   1
    47    13    45   1
    48    14    46   1
    49    15    47   1
    50    16    48   1
    51    16    49   1
    52    17    50   1
    53    18    51   1
    54    19    52   1
    55    22    53   1
    56    23    54   1
    57    23    55   1
    58    24    56   1
    59    25    57   1
    60    26    58   1
    61    27    59   1
    62    27    60   1
    63    28    61   1
    64    31    62   1
    65    32    63   1
    66    32    64   1
@<TRIPOS>SUBSTRUCTURE
     1  MOL      1

