@<TRIPOS>MOLECULE
1w3l_ligand_044
    64    66
SMALL
GAST_HUCK
****
This file was generated by PARSER (from files_GN.cpp)

@<TRIPOS>ATOM
      1 C2         63.0104   44.6726   37.3441 C.3         1 MOL       0.1341
      2 C3         63.7077   43.4734   36.6492 C.3         1 MOL       0.1141
      3 C4         62.7066   42.3170   36.3957 C.3         1 MOL       0.1119
      4 C5         61.4893   42.8654   35.5933 C.3         1 MOL       0.1130
      5 C6         60.4001   41.7909   35.3694 C.3         1 MOL       0.0730
      6 C1         61.7310   45.0925   36.5690 C.3         1 MOL       0.1884
      7 O2         63.9179   45.7702   37.4246 O.3         1 MOL      -0.3841
      8 O3         64.8037   43.0188   37.4443 O.3         1 MOL      -0.3864
      9 O4         63.3889   41.2451   35.7408 O.3         1 MOL      -0.3865
     10 O5         60.8811   43.9581   36.3119 O.3         1 MOL      -0.3405
     11 O6         59.1953   42.3637   34.8596 O.3         1 MOL      -0.3924
     12 C2         57.5354   47.5384   36.8435 C.3         1 MOL       0.1341
     13 C3         58.5969   46.4611   37.1908 C.3         1 MOL       0.1144
     14 C4         60.0384   46.9098   36.8049 C.3         1 MOL       0.1184
     15 C5         60.3152   48.3419   37.3488 C.3         1 MOL       0.1134
     16 C6         61.6852   48.8913   36.8767 C.3         1 MOL       0.0730
     17 C1         57.9654   48.9044   37.4298 C.3         1 MOL       0.1884
     18 O2         56.2612   47.1500   37.3630 O.3         1 MOL      -0.3841
     19 O3         58.2429   45.2563   36.5140 O.3         1 MOL      -0.3864
     20 O4         61.0234   46.0350   37.4007 O.3         1 MOL      -0.3401
     21 O5         59.2750   49.2414   36.9189 O.3         1 MOL      -0.3405
     22 O6         61.6634   50.3164   36.7804 O.3         1 MOL      -0.3924
     23 C6         56.7096   50.6214   40.0895 C.3         1 MOL       0.0782
     24 C5         56.3220   51.5049   38.8834 C.3         1 MOL       0.1538
     25 C4         57.1944   51.2414   37.6130 C.3         1 MOL       0.1259
     26 C3         56.8121   52.2639   36.5055 C.3         1 MOL       0.1245
     27 C2         56.8532   53.7090   37.0689 C.3         1 MOL       0.0256
     28 O6         56.1633   51.1440   41.2972 O.3         1 MOL      -0.3922
     29 O5         56.4763   52.8908   39.2643 O.3         1 MOL      -0.3215
     30 O4         56.9977   49.9130   37.0618 O.3         1 MOL      -0.3398
     31 O3         57.6626   52.1397   35.3634 O.3         1 MOL      -0.3838
     32 N1         56.0475   53.7698   38.3027 N.4         1 MOL       0.3939
     33 H1         62.7390   44.3793   38.3649 H           1 MOL       0.0671
     34 H2         64.1152   43.8092   35.6900 H           1 MOL       0.0648
     35 H3         62.3603   41.9384   37.3625 H           1 MOL       0.0647
     36 H4         61.8230   43.2120   34.6120 H           1 MOL       0.0647
     37 H5         60.1606   41.2963   36.3175 H           1 MOL       0.0584
     38 H6         60.7490   41.0324   34.6600 H           1 MOL       0.0584
     39 H7         62.0305   45.5642   35.6275 H           1 MOL       0.0938
     40 H8         63.5940   46.3193   38.1712 H           1 MOL       0.2101
     41 H9         64.4273   42.8038   38.3257 H           1 MOL       0.2100
     42 H10        62.7281   40.5327   35.5981 H           1 MOL       0.2100
     43 H11        59.3659   42.5637   33.9148 H           1 MOL       0.2095
     44 H12        57.4513   47.6303   35.7533 H           1 MOL       0.0671
     45 H13        58.5598   46.2594   38.2633 H           1 MOL       0.0648
     46 H14        60.1113   46.9345   35.7118 H           1 MOL       0.0651
     47 H15        60.3409   48.3290   38.4435 H           1 MOL       0.0647
     48 H16        61.9490   48.4814   35.8930 H           1 MOL       0.0584
     49 H17        62.4786   48.6144   37.5856 H           1 MOL       0.0584
     50 H18        57.9921   48.8185   38.5196 H           1 MOL       0.0938
     51 H19        55.6412   47.8749   37.1027 H           1 MOL       0.2101
     52 H20        59.0015   44.6471   36.6633 H           1 MOL       0.2100
     53 H21        62.0191   50.4921   35.8784 H           1 MOL       0.2095
     54 H22        57.7960   50.5747   40.1906 H           1 MOL       0.0586
     55 H23        56.3185   49.6111   39.9491 H           1 MOL       0.0586
     56 H24        55.2678   51.3146   38.6525 H           1 MOL       0.0702
     57 H25        58.2471   51.4261   37.8707 H           1 MOL       0.0654
     58 H26        55.7907   52.0659   36.1709 H           1 MOL       0.0674
     59 H27        56.4421   54.4052   36.3362 H           1 MOL       0.0850
     60 H28        57.8845   54.0039   37.2863 H           1 MOL       0.0850
     61 H29        56.4674   50.5199   41.9970 H           1 MOL       0.2095
     62 H30        58.4661   51.6532   35.6552 H           1 MOL       0.2101
     63 H31        55.0755   53.5636   38.0773 H           1 MOL       0.2348
     64 H32        56.1005   54.7186   38.6816 H           1 MOL       0.2348
@<TRIPOS>BOND
     1     1     2   1
     2     6     1   1
     3     1     7   1
     4     2     3   1
     5     2     8   1
     6     4     3   1
     7     3     9   1
     8     4     5   1
     9    10     4   1
    10     5    11   1
    11     6    10   1
    12    20     6   1
    13    12    13   1
    14    17    12   1
    15    12    18   1
    16    13    14   1
    17    13    19   1
    18    15    14   1
    19    14    20   1
    20    15    16   1
    21    21    15   1
    22    16    22   1
    23    17    21   1
    24    30    17   1
    25    24    23   1
    26    23    28   1
    27    25    24   1
    28    24    29   1
    29    25    26   1
    30    25    30   1
    31    26    27   1
    32    26    31   1
    33    27    32   1
    34    29    32   1
    35     1    33   1
    36     2    34   1
    37     3    35   1
    38     4    36   1
    39     5    37   1
    40     5    38   1
    41     6    39   1
    42     7    40   1
    43     8    41   1
    44     9    42   1
    45    11    43   1
    46    12    44   1
    47    13    45   1
    48    14    46   1
    49    15    47   1
    50    16    48   1
    51    16    49   1
    52    17    50   1
    53    18    51   1
    54    19    52   1
    55    22    53   1
    56    23    54   1
    57    23    55   1
    58    24    56   1
    59    25    57   1
    60    26    58   1
    61    27    59   1
    62    27    60   1
    63    28    61   1
    64    31    62   1
    65    32    63   1
    66    32    64   1
@<TRIPOS>SUBSTRUCTURE
     1  MOL      1

