@<TRIPOS>MOLECULE
1w3l_ligand_039
    64    66
SMALL
GAST_HUCK
****
This file was generated by PARSER (from files_GN.cpp)

@<TRIPOS>ATOM
      1 C2         61.7904   48.4409   42.0603 C.3         1 MOL       0.1341
      2 C3         62.6665   49.6339   41.5947 C.3         1 MOL       0.1141
      3 C4         63.4296   49.2840   40.2860 C.3         1 MOL       0.1119
      4 C5         62.4449   48.7635   39.1924 C.3         1 MOL       0.1130
      5 C6         63.1625   48.1911   37.9375 C.3         1 MOL       0.0730
      6 C1         60.8518   47.9805   40.9118 C.3         1 MOL       0.1884
      7 O2         61.0299   48.8195   43.2056 O.3         1 MOL      -0.3841
      8 O3         63.5852   49.9917   42.6291 O.3         1 MOL      -0.3864
      9 O4         64.1400   50.4316   39.8259 O.3         1 MOL      -0.3865
     10 O5         61.6191   47.7045   39.7196 O.3         1 MOL      -0.3405
     11 O6         62.4438   48.4887   36.7424 O.3         1 MOL      -0.3924
     12 C2         58.4347   45.4065   38.1513 C.3         1 MOL       0.1341
     13 C3         58.6998   46.4287   39.2924 C.3         1 MOL       0.1144
     14 C4         59.5502   45.8402   40.4696 C.3         1 MOL       0.1184
     15 C5         60.6515   44.8216   40.0120 C.3         1 MOL       0.1134
     16 C6         61.1506   43.9124   41.1634 C.3         1 MOL       0.0730
     17 C1         59.7656   44.6999   37.7758 C.3         1 MOL       0.1884
     18 O2         57.8593   46.0548   37.0169 O.3         1 MOL      -0.3841
     19 O3         57.4412   46.8922   39.7926 O.3         1 MOL      -0.3864
     20 O4         60.1053   46.8264   41.3658 O.3         1 MOL      -0.3401
     21 O5         60.1852   43.9638   38.9461 O.3         1 MOL      -0.3405
     22 O6         61.8498   42.7709   40.6582 O.3         1 MOL      -0.3924
     23 C6         62.8251   41.5995   37.2032 C.3         1 MOL       0.0782
     24 C5         62.0389   42.9235   36.9558 C.3         1 MOL       0.1538
     25 C4         60.5989   42.8054   36.3221 C.3         1 MOL       0.1259
     26 C3         60.6858   42.7762   34.7630 C.3         1 MOL       0.1245
     27 C2         61.6537   43.8750   34.2436 C.3         1 MOL       0.0256
     28 O6         63.3785   40.9717   36.0526 O.3         1 MOL      -0.3922
     29 O5         62.8462   43.9218   36.2848 O.3         1 MOL      -0.3215
     30 O4         59.6292   43.8355   36.6342 O.3         1 MOL      -0.3398
     31 O3         61.0960   41.4899   34.2841 O.3         1 MOL      -0.3838
     32 N1         62.9407   43.7343   34.9355 N.4         1 MOL       0.3939
     33 H1         62.4424   47.6103   42.3425 H           1 MOL       0.0671
     34 H2         62.0226   50.4983   41.4073 H           1 MOL       0.0648
     35 H3         64.1734   48.5162   40.5059 H           1 MOL       0.0647
     36 H4         61.8014   49.5915   38.8783 H           1 MOL       0.0647
     37 H5         63.2425   47.1065   38.0131 H           1 MOL       0.0584
     38 H6         64.1728   48.5910   37.8367 H           1 MOL       0.0584
     39 H7         60.1283   48.7741   40.6965 H           1 MOL       0.0938
     40 H8         60.5816   47.9998   43.5048 H           1 MOL       0.2101
     41 H9         63.9514   50.8648   42.3733 H           1 MOL       0.2100
     42 H10        63.4555   51.1127   39.6628 H           1 MOL       0.2100
     43 H11        62.9274   49.2457   36.3446 H           1 MOL       0.2095
     44 H12        57.7221   44.6532   38.5026 H           1 MOL       0.0671
     45 H13        59.2038   47.2889   38.8435 H           1 MOL       0.0648
     46 H14        58.8479   45.2798   41.0851 H           1 MOL       0.0651
     47 H15        61.5367   45.3443   39.6362 H           1 MOL       0.0647
     48 H16        60.3080   43.5394   41.7503 H           1 MOL       0.0584
     49 H17        61.8130   44.4734   41.8261 H           1 MOL       0.0584
     50 H18        60.5116   45.4579   37.4974 H           1 MOL       0.0938
     51 H19        56.9970   46.3990   37.3359 H           1 MOL       0.2101
     52 H20        57.6670   47.5905   40.4494 H           1 MOL       0.2100
     53 H21        62.7617   43.0716   40.4413 H           1 MOL       0.2095
     54 H22        62.1602   40.8804   37.7117 H           1 MOL       0.0586
     55 H23        63.6679   41.8066   37.8782 H           1 MOL       0.0586
     56 H24        61.9142   43.3121   37.9706 H           1 MOL       0.0702
     57 H25        60.1553   41.8717   36.6607 H           1 MOL       0.0654
     58 H26        59.6991   42.9605   34.3248 H           1 MOL       0.0674
     59 H27        61.2353   44.8663   34.4313 H           1 MOL       0.0850
     60 H28        61.8169   43.7694   33.1689 H           1 MOL       0.0850
     61 H29        62.7533   40.2385   35.8435 H           1 MOL       0.2095
     62 H30        61.8488   41.6426   33.6566 H           1 MOL       0.2101
     63 H31        63.5991   44.4202   34.5691 H           1 MOL       0.2348
     64 H32        63.3219   42.8100   34.7424 H           1 MOL       0.2348
@<TRIPOS>BOND
     1     1     2   1
     2     6     1   1
     3     1     7   1
     4     2     3   1
     5     2     8   1
     6     4     3   1
     7     3     9   1
     8     4     5   1
     9    10     4   1
    10     5    11   1
    11     6    10   1
    12    20     6   1
    13    12    13   1
    14    17    12   1
    15    12    18   1
    16    13    14   1
    17    13    19   1
    18    15    14   1
    19    14    20   1
    20    15    16   1
    21    21    15   1
    22    16    22   1
    23    17    21   1
    24    30    17   1
    25    24    23   1
    26    23    28   1
    27    25    24   1
    28    24    29   1
    29    25    26   1
    30    25    30   1
    31    26    27   1
    32    26    31   1
    33    27    32   1
    34    29    32   1
    35     1    33   1
    36     2    34   1
    37     3    35   1
    38     4    36   1
    39     5    37   1
    40     5    38   1
    41     6    39   1
    42     7    40   1
    43     8    41   1
    44     9    42   1
    45    11    43   1
    46    12    44   1
    47    13    45   1
    48    14    46   1
    49    15    47   1
    50    16    48   1
    51    16    49   1
    52    17    50   1
    53    18    51   1
    54    19    52   1
    55    22    53   1
    56    23    54   1
    57    23    55   1
    58    24    56   1
    59    25    57   1
    60    26    58   1
    61    27    59   1
    62    27    60   1
    63    28    61   1
    64    31    62   1
    65    32    63   1
    66    32    64   1
@<TRIPOS>SUBSTRUCTURE
     1  MOL      1

