@<TRIPOS>MOLECULE
1w3l_ligand_024
    64    66
SMALL
GAST_HUCK
****
This file was generated by PARSER (from files_GN.cpp)

@<TRIPOS>ATOM
      1 C2         60.3589   43.3702   35.2101 C.3         1 MOL       0.1341
      2 C3         61.1915   42.0538   35.2658 C.3         1 MOL       0.1141
      3 C4         62.6553   42.3215   35.7512 C.3         1 MOL       0.1119
      4 C5         62.6547   43.1981   37.0411 C.3         1 MOL       0.1130
      5 C6         64.0602   43.7003   37.4358 C.3         1 MOL       0.0730
      6 C1         60.4173   44.0725   36.5895 C.3         1 MOL       0.1884
      7 O2         59.0071   43.0980   34.8392 O.3         1 MOL      -0.3841
      8 O3         61.1755   41.3834   33.9928 O.3         1 MOL      -0.3864
      9 O4         63.3254   41.0920   36.0151 O.3         1 MOL      -0.3865
     10 O5         61.8049   44.3548   36.8749 O.3         1 MOL      -0.3405
     11 O6         64.5661   44.6598   36.5116 O.3         1 MOL      -0.3924
     12 C2         59.8659   47.2477   39.9332 C.3         1 MOL       0.1341
     13 C3         60.3807   46.3735   38.7398 C.3         1 MOL       0.1144
     14 C4         59.2272   45.8880   37.8036 C.3         1 MOL       0.1184
     15 C5         58.3232   47.1007   37.4405 C.3         1 MOL       0.1134
     16 C6         57.0566   46.6836   36.6354 C.3         1 MOL       0.0730
     17 C1         58.8788   48.3526   39.4679 C.3         1 MOL       0.1884
     18 O2         60.9793   47.8249   40.6262 O.3         1 MOL      -0.3841
     19 O3         61.0470   45.2370   39.2969 O.3         1 MOL      -0.3864
     20 O4         59.6872   45.3067   36.5606 O.3         1 MOL      -0.3401
     21 O5         57.8674   47.8044   38.6104 O.3         1 MOL      -0.3405
     22 O6         55.8570   46.8457   37.4094 O.3         1 MOL      -0.3924
     23 C6         58.7900   47.9079   43.3596 C.3         1 MOL       0.0782
     24 C5         58.3161   49.3329   42.9843 C.3         1 MOL       0.1538
     25 C4         58.7615   49.7664   41.5528 C.3         1 MOL       0.1259
     26 C3         58.3451   51.2491   41.3222 C.3         1 MOL       0.1245
     27 C2         58.8139   52.1312   42.5114 C.3         1 MOL       0.0256
     28 O6         60.2067   47.8010   43.3191 O.3         1 MOL      -0.3922
     29 O5         58.8167   50.2557   43.9671 O.3         1 MOL      -0.3215
     30 O4         58.1364   48.8986   40.5856 O.3         1 MOL      -0.3398
     31 O3         58.8919   51.7597   40.1164 O.3         1 MOL      -0.3838
     32 N1         58.3479   51.5348   43.7766 N.4         1 MOL       0.3939
     33 H1         60.7776   44.0343   34.4474 H           1 MOL       0.0671
     34 H2         60.7062   41.3762   35.9733 H           1 MOL       0.0648
     35 H3         63.1778   42.8488   34.9458 H           1 MOL       0.0647
     36 H4         62.2737   42.6005   37.8695 H           1 MOL       0.0647
     37 H5         64.7557   42.8586   37.4933 H           1 MOL       0.0584
     38 H6         64.0163   44.1682   38.4192 H           1 MOL       0.0584
     39 H7         60.0084   43.4019   37.3517 H           1 MOL       0.0938
     40 H8         59.0007   43.0600   33.8555 H           1 MOL       0.2101
     41 H9         61.9796   41.6647   33.5089 H           1 MOL       0.2100
     42 H10        62.7065   40.3743   35.7551 H           1 MOL       0.2100
     43 H11        64.1172   45.4979   36.7254 H           1 MOL       0.2095
     44 H12        59.3409   46.5884   40.6375 H           1 MOL       0.0671
     45 H13        61.1042   46.9526   38.1571 H           1 MOL       0.0648
     46 H14        58.6139   45.1739   38.3581 H           1 MOL       0.0651
     47 H15        58.8978   47.7893   36.8065 H           1 MOL       0.0647
     48 H16        57.1105   45.6315   36.3130 H           1 MOL       0.0584
     49 H17        56.9710   47.3051   35.7310 H           1 MOL       0.0584
     50 H18        59.4223   49.1457   38.9385 H           1 MOL       0.0938
     51 H19        61.7420   47.2346   40.4884 H           1 MOL       0.2101
     52 H20        61.8761   45.5890   39.6781 H           1 MOL       0.2100
     53 H21        55.1242   46.7192   36.7725 H           1 MOL       0.2095
     54 H22        58.3670   47.1801   42.6669 H           1 MOL       0.0586
     55 H23        58.4438   47.6611   44.3687 H           1 MOL       0.0586
     56 H24        57.2204   49.3316   43.0404 H           1 MOL       0.0702
     57 H25        59.8485   49.7064   41.5048 H           1 MOL       0.0654
     58 H26        57.2482   51.3133   41.2571 H           1 MOL       0.0674
     59 H27        58.3910   53.1397   42.4104 H           1 MOL       0.0850
     60 H28        59.9094   52.2082   42.5209 H           1 MOL       0.0850
     61 H29        60.4009   46.8762   43.5811 H           1 MOL       0.2095
     62 H30        58.3037   51.4284   39.4015 H           1 MOL       0.2101
     63 H31        57.3294   51.5164   43.7845 H           1 MOL       0.2348
     64 H32        58.6800   52.1207   44.5486 H           1 MOL       0.2348
@<TRIPOS>BOND
     1     1     2   1
     2     6     1   1
     3     1     7   1
     4     2     3   1
     5     2     8   1
     6     4     3   1
     7     3     9   1
     8     4     5   1
     9    10     4   1
    10     5    11   1
    11     6    10   1
    12    20     6   1
    13    12    13   1
    14    17    12   1
    15    12    18   1
    16    13    14   1
    17    13    19   1
    18    15    14   1
    19    14    20   1
    20    15    16   1
    21    21    15   1
    22    16    22   1
    23    17    21   1
    24    30    17   1
    25    24    23   1
    26    23    28   1
    27    25    24   1
    28    24    29   1
    29    25    26   1
    30    25    30   1
    31    26    27   1
    32    26    31   1
    33    27    32   1
    34    29    32   1
    35     1    33   1
    36     2    34   1
    37     3    35   1
    38     4    36   1
    39     5    37   1
    40     5    38   1
    41     6    39   1
    42     7    40   1
    43     8    41   1
    44     9    42   1
    45    11    43   1
    46    12    44   1
    47    13    45   1
    48    14    46   1
    49    15    47   1
    50    16    48   1
    51    16    49   1
    52    17    50   1
    53    18    51   1
    54    19    52   1
    55    22    53   1
    56    23    54   1
    57    23    55   1
    58    24    56   1
    59    25    57   1
    60    26    58   1
    61    27    59   1
    62    27    60   1
    63    28    61   1
    64    31    62   1
    65    32    63   1
    66    32    64   1
@<TRIPOS>SUBSTRUCTURE
     1  MOL      1

