@<TRIPOS>MOLECULE
1w3l_ligand_005
    64    66
SMALL
GAST_HUCK
****
This file was generated by PARSER (from files_GN.cpp)

@<TRIPOS>ATOM
      1 C2         60.7564   43.6840   34.9247 C.3         1 MOL       0.1341
      2 C3         61.2673   42.2413   35.2076 C.3         1 MOL       0.1141
      3 C4         62.7092   42.2624   35.7955 C.3         1 MOL       0.1119
      4 C5         62.7952   43.2456   36.9999 C.3         1 MOL       0.1130
      5 C6         64.2375   43.5067   37.5042 C.3         1 MOL       0.0730
      6 C1         60.8984   44.5512   36.1993 C.3         1 MOL       0.1884
      7 O2         59.3909   43.6841   34.5219 O.3         1 MOL      -0.3841
      8 O3         61.2296   41.4487   34.0208 O.3         1 MOL      -0.3864
      9 O4         63.0989   40.9565   36.2205 O.3         1 MOL      -0.3865
     10 O5         62.2668   44.5335   36.6290 O.3         1 MOL      -0.3405
     11 O6         64.9164   44.4463   36.6755 O.3         1 MOL      -0.3924
     12 C2         58.7514   47.6727   38.8830 C.3         1 MOL       0.1341
     13 C3         58.9394   46.7010   37.6780 C.3         1 MOL       0.1144
     14 C4         60.3224   46.8825   36.9559 C.3         1 MOL       0.1184
     15 C5         61.4914   47.0117   37.9938 C.3         1 MOL       0.1134
     16 C6         62.8868   47.3915   37.4066 C.3         1 MOL       0.0730
     17 C1         60.0041   47.6435   39.8060 C.3         1 MOL       0.1884
     18 O2         57.5659   47.3372   39.6073 O.3         1 MOL      -0.3841
     19 O3         57.8823   46.8822   36.7323 O.3         1 MOL      -0.3864
     20 O4         60.5389   45.9147   35.8915 O.3         1 MOL      -0.3401
     21 O5         61.1435   48.0023   38.9971 O.3         1 MOL      -0.3405
     22 O6         62.8608   47.9192   36.0853 O.3         1 MOL      -0.3924
     23 C6         58.7999   51.3635   40.9175 C.3         1 MOL       0.0782
     24 C5         60.2266   50.8789   40.5356 C.3         1 MOL       0.1538
     25 C4         60.6466   49.5980   41.3264 C.3         1 MOL       0.1259
     26 C3         62.1888   49.3772   41.2600 C.3         1 MOL       0.1245
     27 C2         62.9412   50.7003   41.5392 C.3         1 MOL       0.0256
     28 O6         58.7545   51.7830   42.2832 O.3         1 MOL      -0.3922
     29 O5         61.1216   51.9936   40.7747 O.3         1 MOL      -0.3215
     30 O4         59.7938   48.4859   40.9589 O.3         1 MOL      -0.3398
     31 O3         62.5833   48.3630   42.1819 O.3         1 MOL      -0.3838
     32 N1         62.4479   51.6952   40.5577 N.4         1 MOL       0.3939
     33 H1         61.3503   44.1291   34.1183 H           1 MOL       0.0671
     34 H2         60.5939   41.7703   35.9293 H           1 MOL       0.0648
     35 H3         63.4007   42.6009   35.0195 H           1 MOL       0.0647
     36 H4         62.2205   42.8376   37.8413 H           1 MOL       0.0647
     37 H5         64.8163   42.5819   37.5429 H           1 MOL       0.0584
     38 H6         64.1945   43.9263   38.5130 H           1 MOL       0.0584
     39 H7         60.2493   44.1458   36.9773 H           1 MOL       0.0938
     40 H8         59.3340   43.0630   33.7709 H           1 MOL       0.2101
     41 H9         62.0213   41.6990   33.4943 H           1 MOL       0.2100
     42 H10        62.9411   40.3751   35.4501 H           1 MOL       0.2100
     43 H11        65.6887   44.7460   37.2027 H           1 MOL       0.2095
     44 H12        58.6360   48.6877   38.4917 H           1 MOL       0.0671
     45 H13        58.8567   45.6779   38.0618 H           1 MOL       0.0648
     46 H14        60.2659   47.8452   36.4438 H           1 MOL       0.0651
     47 H15        61.6145   46.0506   38.5128 H           1 MOL       0.0647
     48 H16        63.5223   46.5024   37.3692 H           1 MOL       0.0584
     49 H17        63.3937   48.1054   38.0588 H           1 MOL       0.0584
     50 H18        60.1318   46.6345   40.2127 H           1 MOL       0.0938
     51 H19        57.4449   48.0734   40.2379 H           1 MOL       0.2101
     52 H20        57.9493   47.8142   36.4304 H           1 MOL       0.2100
     53 H21        63.0738   48.8673   36.1731 H           1 MOL       0.2095
     54 H22        58.0727   50.5629   40.7623 H           1 MOL       0.0586
     55 H23        58.5146   52.2112   40.2878 H           1 MOL       0.0586
     56 H24        60.2402   50.6388   39.4687 H           1 MOL       0.0702
     57 H25        60.4192   49.7852   42.3840 H           1 MOL       0.0654
     58 H26        62.4851   49.0789   40.2489 H           1 MOL       0.0674
     59 H27        64.0169   50.5572   41.3978 H           1 MOL       0.0850
     60 H28        62.7592   51.0581   42.5631 H           1 MOL       0.0850
     61 H29        57.8222   52.0562   42.4385 H           1 MOL       0.2095
     62 H30        62.7544   47.5642   41.6154 H           1 MOL       0.2101
     63 H31        62.5776   51.3337   39.6002 H           1 MOL       0.2348
     64 H32        62.9976   52.5539   40.6555 H           1 MOL       0.2348
@<TRIPOS>BOND
     1     1     2   1
     2     6     1   1
     3     1     7   1
     4     2     3   1
     5     2     8   1
     6     4     3   1
     7     3     9   1
     8     4     5   1
     9    10     4   1
    10     5    11   1
    11     6    10   1
    12    20     6   1
    13    12    13   1
    14    17    12   1
    15    12    18   1
    16    13    14   1
    17    13    19   1
    18    15    14   1
    19    14    20   1
    20    15    16   1
    21    21    15   1
    22    16    22   1
    23    17    21   1
    24    30    17   1
    25    24    23   1
    26    23    28   1
    27    25    24   1
    28    24    29   1
    29    25    26   1
    30    25    30   1
    31    26    27   1
    32    26    31   1
    33    27    32   1
    34    29    32   1
    35     1    33   1
    36     2    34   1
    37     3    35   1
    38     4    36   1
    39     5    37   1
    40     5    38   1
    41     6    39   1
    42     7    40   1
    43     8    41   1
    44     9    42   1
    45    11    43   1
    46    12    44   1
    47    13    45   1
    48    14    46   1
    49    15    47   1
    50    16    48   1
    51    16    49   1
    52    17    50   1
    53    18    51   1
    54    19    52   1
    55    22    53   1
    56    23    54   1
    57    23    55   1
    58    24    56   1
    59    25    57   1
    60    26    58   1
    61    27    59   1
    62    27    60   1
    63    28    61   1
    64    31    62   1
    65    32    63   1
    66    32    64   1
@<TRIPOS>SUBSTRUCTURE
     1  MOL      1

