@<TRIPOS>MOLECULE
1w3l_ligand_037
    64    66
SMALL
GAST_HUCK
****
This file was generated by PARSER (from files_GN.cpp)

@<TRIPOS>ATOM
      1 C2         61.6617   50.4491   40.9886 C.3         1 MOL       0.1341
      2 C3         62.1473   50.4025   42.4662 C.3         1 MOL       0.1141
      3 C4         61.6576   49.1256   43.2036 C.3         1 MOL       0.1119
      4 C5         61.9950   47.8633   42.3610 C.3         1 MOL       0.1130
      5 C6         61.5033   46.5317   42.9773 C.3         1 MOL       0.0730
      6 C1         61.9201   49.1011   40.2582 C.3         1 MOL       0.1884
      7 O2         62.3216   51.5272   40.3252 O.3         1 MOL      -0.3841
      8 O3         61.6814   51.5594   43.1642 O.3         1 MOL      -0.3864
      9 O4         62.2497   49.0552   44.5017 O.3         1 MOL      -0.3865
     10 O5         61.3983   48.0091   41.0544 O.3         1 MOL      -0.3405
     11 O6         60.0819   46.4659   43.0339 O.3         1 MOL      -0.3924
     12 C2         59.4712   46.5150   36.9432 C.3         1 MOL       0.1341
     13 C3         59.6743   47.8410   37.7154 C.3         1 MOL       0.1144
     14 C4         61.1475   47.9433   38.2031 C.3         1 MOL       0.1184
     15 C5         62.0824   47.8791   36.9615 C.3         1 MOL       0.1134
     16 C6         63.5783   47.9646   37.3187 C.3         1 MOL       0.0730
     17 C1         60.5336   46.3523   35.8135 C.3         1 MOL       0.1884
     18 O2         58.1567   46.4564   36.3878 O.3         1 MOL      -0.3841
     19 O3         58.7786   47.8856   38.8259 O.3         1 MOL      -0.3864
     20 O4         61.2747   49.1642   38.9656 O.3         1 MOL      -0.3401
     21 O5         61.8763   46.6230   36.2709 O.3         1 MOL      -0.3405
     22 O6         64.3465   48.0928   36.1247 O.3         1 MOL      -0.3924
     23 C6         61.2082   42.4601   37.8831 C.3         1 MOL       0.0782
     24 C5         61.5396   43.3332   36.6391 C.3         1 MOL       0.1538
     25 C4         60.3156   43.7913   35.7706 C.3         1 MOL       0.1259
     26 C3         59.9597   42.7718   34.6477 C.3         1 MOL       0.1245
     27 C2         61.2269   42.2313   33.9566 C.3         1 MOL       0.0256
     28 O6         60.1423   41.5329   37.7161 O.3         1 MOL      -0.3922
     29 O5         62.5735   42.7393   35.8309 O.3         1 MOL      -0.3215
     30 O4         60.5150   45.0780   35.1159 O.3         1 MOL      -0.3398
     31 O3         59.2094   41.6747   35.1732 O.3         1 MOL      -0.3838
     32 N1         62.1697   41.7442   34.9846 N.4         1 MOL       0.3939
     33 H1         60.5837   50.6417   40.9724 H           1 MOL       0.0671
     34 H2         63.2425   50.4198   42.4786 H           1 MOL       0.0648
     35 H3         60.5733   49.1896   43.3360 H           1 MOL       0.0647
     36 H4         63.0820   47.7861   42.2575 H           1 MOL       0.0647
     37 H5         61.9052   46.4119   43.9820 H           1 MOL       0.0584
     38 H6         61.8599   45.7023   42.3667 H           1 MOL       0.0584
     39 H7         62.9969   48.9658   40.1063 H           1 MOL       0.0938
     40 H8         62.5970   51.1901   39.4496 H           1 MOL       0.2101
     41 H9         62.1818   52.3135   42.7865 H           1 MOL       0.2100
     42 H10        63.2067   48.9076   44.3459 H           1 MOL       0.2100
     43 H11        59.8828   45.5943   43.4393 H           1 MOL       0.2095
     44 H12        59.5828   45.7045   37.6707 H           1 MOL       0.0671
     45 H13        59.4366   48.6848   37.0587 H           1 MOL       0.0648
     46 H14        61.3520   47.0556   38.8105 H           1 MOL       0.0651
     47 H15        61.8483   48.7171   36.2902 H           1 MOL       0.0647
     48 H16        63.8896   47.0655   37.8471 H           1 MOL       0.0584
     49 H17        63.7731   48.8303   37.9487 H           1 MOL       0.0584
     50 H18        60.3200   47.1005   35.0409 H           1 MOL       0.0938
     51 H19        57.6051   46.0068   37.0717 H           1 MOL       0.2101
     52 H20        58.8438   48.7981   39.1721 H           1 MOL       0.2100
     53 H21        65.2628   48.2846   36.3987 H           1 MOL       0.2095
     54 H22        60.9226   43.1154   38.7130 H           1 MOL       0.0586
     55 H23        62.1087   41.9186   38.1931 H           1 MOL       0.0586
     56 H24        61.9968   44.2231   37.0655 H           1 MOL       0.0702
     57 H25        59.4240   43.8658   36.3978 H           1 MOL       0.0654
     58 H26        59.3233   43.2684   33.9134 H           1 MOL       0.0674
     59 H27        61.7043   43.0127   33.3592 H           1 MOL       0.0850
     60 H28        60.9805   41.4022   33.2838 H           1 MOL       0.0850
     61 H29        60.4976   40.7508   37.2240 H           1 MOL       0.2095
     62 H30        58.4211   41.5774   34.5644 H           1 MOL       0.2101
     63 H31        62.9947   41.3960   34.4960 H           1 MOL       0.2348
     64 H32        61.7394   40.9750   35.4985 H           1 MOL       0.2348
@<TRIPOS>BOND
     1     1     2   1
     2     6     1   1
     3     1     7   1
     4     2     3   1
     5     2     8   1
     6     4     3   1
     7     3     9   1
     8     4     5   1
     9    10     4   1
    10     5    11   1
    11     6    10   1
    12    20     6   1
    13    12    13   1
    14    17    12   1
    15    12    18   1
    16    13    14   1
    17    13    19   1
    18    15    14   1
    19    14    20   1
    20    15    16   1
    21    21    15   1
    22    16    22   1
    23    17    21   1
    24    30    17   1
    25    24    23   1
    26    23    28   1
    27    25    24   1
    28    24    29   1
    29    25    26   1
    30    25    30   1
    31    26    27   1
    32    26    31   1
    33    27    32   1
    34    29    32   1
    35     1    33   1
    36     2    34   1
    37     3    35   1
    38     4    36   1
    39     5    37   1
    40     5    38   1
    41     6    39   1
    42     7    40   1
    43     8    41   1
    44     9    42   1
    45    11    43   1
    46    12    44   1
    47    13    45   1
    48    14    46   1
    49    15    47   1
    50    16    48   1
    51    16    49   1
    52    17    50   1
    53    18    51   1
    54    19    52   1
    55    22    53   1
    56    23    54   1
    57    23    55   1
    58    24    56   1
    59    25    57   1
    60    26    58   1
    61    27    59   1
    62    27    60   1
    63    28    61   1
    64    31    62   1
    65    32    63   1
    66    32    64   1
@<TRIPOS>SUBSTRUCTURE
     1  MOL      1

