@<TRIPOS>MOLECULE
1w3l_ligand_008
    64    66
SMALL
GAST_HUCK
****
This file was generated by PARSER (from files_GN.cpp)

@<TRIPOS>ATOM
      1 C2         57.9529   50.6602   40.0287 C.3         1 MOL       0.1341
      2 C3         56.8258   51.7341   40.0175 C.3         1 MOL       0.1141
      3 C4         56.8702   52.5848   38.7153 C.3         1 MOL       0.1119
      4 C5         56.8924   51.6525   37.4709 C.3         1 MOL       0.1130
      5 C6         57.0164   52.4190   36.1311 C.3         1 MOL       0.0730
      6 C1         57.9439   49.8476   38.7082 C.3         1 MOL       0.1884
      7 O2         57.7830   49.7984   41.1570 O.3         1 MOL      -0.3841
      8 O3         56.9555   52.5950   41.1517 O.3         1 MOL      -0.3864
      9 O4         55.7472   53.4627   38.6653 O.3         1 MOL      -0.3865
     10 O5         58.0046   50.7431   37.5738 O.3         1 MOL      -0.3405
     11 O6         58.1341   53.3089   36.1342 O.3         1 MOL      -0.3924
     12 C2         61.4589   47.7584   36.0233 C.3         1 MOL       0.1341
     13 C3         60.9284   48.5930   37.2232 C.3         1 MOL       0.1144
     14 C4         59.4350   48.2729   37.5150 C.3         1 MOL       0.1184
     15 C5         59.2500   46.7362   37.6885 C.3         1 MOL       0.1134
     16 C6         57.7717   46.3001   37.8747 C.3         1 MOL       0.0730
     17 C1         61.1985   46.2555   36.3141 C.3         1 MOL       0.1884
     18 O2         62.8603   47.9518   35.8441 O.3         1 MOL      -0.3841
     19 O3         61.1032   49.9870   36.9774 O.3         1 MOL      -0.3864
     20 O4         59.0929   48.9785   38.7303 O.3         1 MOL      -0.3401
     21 O5         59.7822   46.0514   36.5292 O.3         1 MOL      -0.3405
     22 O6         56.9126   46.8638   36.8841 O.3         1 MOL      -0.3924
     23 C6         61.0420   41.6441   35.0915 C.3         1 MOL       0.0782
     24 C5         60.8549   43.1003   35.5973 C.3         1 MOL       0.1538
     25 C4         62.0690   44.0654   35.4068 C.3         1 MOL       0.1259
     26 C3         63.1703   43.8209   36.4877 C.3         1 MOL       0.1245
     27 C2         62.6103   43.5982   37.9242 C.3         1 MOL       0.0256
     28 O6         60.8371   41.5011   33.6877 O.3         1 MOL      -0.3922
     29 O5         60.4455   43.1035   36.9847 O.3         1 MOL      -0.3215
     30 O4         61.6897   45.4523   35.2202 O.3         1 MOL      -0.3398
     31 O3         63.9246   42.6511   36.1662 O.3         1 MOL      -0.3838
     32 N1         61.4193   42.7169   37.8810 N.4         1 MOL       0.3939
     33 H1         58.9153   51.1667   40.1297 H           1 MOL       0.0671
     34 H2         55.8535   51.2324   40.0844 H           1 MOL       0.0648
     35 H3         57.7823   53.1906   38.7269 H           1 MOL       0.0647
     36 H4         55.9571   51.0873   37.4246 H           1 MOL       0.0647
     37 H5         56.1066   52.9958   35.9342 H           1 MOL       0.0584
     38 H6         57.1470   51.7055   35.3115 H           1 MOL       0.0584
     39 H7         57.0422   49.2300   38.6570 H           1 MOL       0.0938
     40 H8         58.5780   49.2263   41.1674 H           1 MOL       0.2101
     41 H9         56.8047   52.0211   41.9350 H           1 MOL       0.2100
     42 H10        55.8758   54.0900   39.4100 H           1 MOL       0.2100
     43 H11        58.1211   53.7377   35.2484 H           1 MOL       0.2095
     44 H12        60.9345   48.0507   35.1022 H           1 MOL       0.0671
     45 H13        61.5224   48.3434   38.1153 H           1 MOL       0.0648
     46 H14        58.8464   48.5913   36.6451 H           1 MOL       0.0651
     47 H15        59.7842   46.4099   38.5911 H           1 MOL       0.0647
     48 H16        57.4172   46.6041   38.8598 H           1 MOL       0.0584
     49 H17        57.7040   45.2123   37.8102 H           1 MOL       0.0584
     50 H18        61.7488   46.0032   37.2188 H           1 MOL       0.0938
     51 H19        63.0299   48.9025   35.9984 H           1 MOL       0.2101
     52 H20        62.0734   50.1222   36.9536 H           1 MOL       0.2100
     53 H21        57.1911   46.4579   36.0356 H           1 MOL       0.2095
     54 H22        60.3026   41.0223   35.5876 H           1 MOL       0.0586
     55 H23        62.0281   41.2595   35.3412 H           1 MOL       0.0586
     56 H24        60.0181   43.5126   35.0313 H           1 MOL       0.0702
     57 H25        62.5209   43.8284   34.4402 H           1 MOL       0.0654
     58 H26        63.8666   44.6661   36.4990 H           1 MOL       0.0674
     59 H27        62.3613   44.5415   38.4050 H           1 MOL       0.0850
     60 H28        63.3704   43.1187   38.5389 H           1 MOL       0.0850
     61 H29        61.6785   41.7516   33.2383 H           1 MOL       0.2095
     62 H30        63.8749   42.5713   35.1935 H           1 MOL       0.2101
     63 H31        60.9998   42.6985   38.8199 H           1 MOL       0.2348
     64 H32        61.7264   41.7643   37.6541 H           1 MOL       0.2348
@<TRIPOS>BOND
     1     1     2   1
     2     6     1   1
     3     1     7   1
     4     2     3   1
     5     2     8   1
     6     4     3   1
     7     3     9   1
     8     4     5   1
     9    10     4   1
    10     5    11   1
    11     6    10   1
    12    20     6   1
    13    12    13   1
    14    17    12   1
    15    12    18   1
    16    13    14   1
    17    13    19   1
    18    15    14   1
    19    14    20   1
    20    15    16   1
    21    21    15   1
    22    16    22   1
    23    17    21   1
    24    30    17   1
    25    24    23   1
    26    23    28   1
    27    25    24   1
    28    24    29   1
    29    25    26   1
    30    25    30   1
    31    26    27   1
    32    26    31   1
    33    27    32   1
    34    29    32   1
    35     1    33   1
    36     2    34   1
    37     3    35   1
    38     4    36   1
    39     5    37   1
    40     5    38   1
    41     6    39   1
    42     7    40   1
    43     8    41   1
    44     9    42   1
    45    11    43   1
    46    12    44   1
    47    13    45   1
    48    14    46   1
    49    15    47   1
    50    16    48   1
    51    16    49   1
    52    17    50   1
    53    18    51   1
    54    19    52   1
    55    22    53   1
    56    23    54   1
    57    23    55   1
    58    24    56   1
    59    25    57   1
    60    26    58   1
    61    27    59   1
    62    27    60   1
    63    28    61   1
    64    31    62   1
    65    32    63   1
    66    32    64   1
@<TRIPOS>SUBSTRUCTURE
     1  MOL      1

