@<TRIPOS>MOLECULE
1w3l_ligand_063
    64    66
SMALL
GAST_HUCK
****
This file was generated by PARSER (from files_GN.cpp)

@<TRIPOS>ATOM
      1 C2         64.0937   40.5431   37.2651 C.3         1 MOL       0.1341
      2 C3         64.2288   39.2180   38.0681 C.3         1 MOL       0.1141
      3 C4         63.5539   39.3187   39.4660 C.3         1 MOL       0.1119
      4 C5         62.0867   39.8153   39.3027 C.3         1 MOL       0.1130
      5 C6         61.3353   40.0516   40.6430 C.3         1 MOL       0.0730
      6 C1         62.6374   41.0792   37.2808 C.3         1 MOL       0.1884
      7 O2         64.5410   40.3172   35.9222 O.3         1 MOL      -0.3841
      8 O3         65.6112   38.8909   38.2153 O.3         1 MOL      -0.3864
      9 O4         63.6153   38.0467   40.1220 O.3         1 MOL      -0.3865
     10 O5         62.0882   41.0881   38.6190 O.3         1 MOL      -0.3405
     11 O6         61.4525   38.9579   41.5546 O.3         1 MOL      -0.3924
     12 C2         60.6308   45.2217   38.3106 C.3         1 MOL       0.1341
     13 C3         61.8255   44.2477   38.1031 C.3         1 MOL       0.1144
     14 C4         61.5089   43.2620   36.9354 C.3         1 MOL       0.1184
     15 C5         61.1899   44.0889   35.6481 C.3         1 MOL       0.1134
     16 C6         60.7789   43.2225   34.4238 C.3         1 MOL       0.0730
     17 C1         60.2692   45.9397   36.9793 C.3         1 MOL       0.1884
     18 O2         60.9490   46.1970   39.3079 O.3         1 MOL      -0.3841
     19 O3         62.0431   43.5703   39.3429 O.3         1 MOL      -0.3864
     20 O4         62.6614   42.4155   36.7314 O.3         1 MOL      -0.3401
     21 O5         60.0792   44.9904   35.9000 O.3         1 MOL      -0.3405
     22 O6         61.5409   42.0233   34.2648 O.3         1 MOL      -0.3924
     23 C6         55.3053   46.4830   36.8565 C.3         1 MOL       0.0782
     24 C5         56.7462   47.0817   36.8053 C.3         1 MOL       0.1538
     25 C4         57.8619   46.3201   37.5994 C.3         1 MOL       0.1259
     26 C3         57.7050   46.6008   39.1184 C.3         1 MOL       0.1245
     27 C2         57.5890   48.1296   39.3738 C.3         1 MOL       0.0256
     28 O6         55.2919   45.0509   36.8042 O.3         1 MOL      -0.3922
     29 O5         56.7378   48.4853   37.1711 O.3         1 MOL      -0.3215
     30 O4         59.1284   46.8132   37.1090 O.3         1 MOL      -0.3398
     31 O3         56.5577   45.9222   39.6441 O.3         1 MOL      -0.3838
     32 N1         56.5285   48.7134   38.5142 N.4         1 MOL       0.3939
     33 H1         64.7445   41.2942   37.7268 H           1 MOL       0.0671
     34 H2         63.7448   38.4136   37.5066 H           1 MOL       0.0648
     35 H3         64.1014   40.0355   40.0874 H           1 MOL       0.0647
     36 H4         61.5176   39.0693   38.7307 H           1 MOL       0.0647
     37 H5         60.2705   40.1870   40.4282 H           1 MOL       0.0584
     38 H6         61.7095   40.9598   41.1293 H           1 MOL       0.0584
     39 H7         62.0201   40.4544   36.6316 H           1 MOL       0.0938
     40 H8         64.1712   41.0448   35.3799 H           1 MOL       0.2101
     41 H9         65.6289   37.9977   38.6222 H           1 MOL       0.2100
     42 H10        63.0663   37.4497   39.5727 H           1 MOL       0.2100
     43 H11        62.3910   38.9595   41.8347 H           1 MOL       0.2095
     44 H12        59.7629   44.6481   38.6579 H           1 MOL       0.0671
     45 H13        62.7316   44.8230   37.8741 H           1 MOL       0.0648
     46 H14        60.6095   42.6855   37.1819 H           1 MOL       0.0651
     47 H15        62.0818   44.6657   35.3615 H           1 MOL       0.0647
     48 H16        60.8884   43.8208   33.5108 H           1 MOL       0.0584
     49 H17        59.7249   42.9364   34.5168 H           1 MOL       0.0584
     50 H18        61.1020   46.5949   36.7074 H           1 MOL       0.0938
     51 H19        61.1557   45.6817   40.1174 H           1 MOL       0.2101
     52 H20        63.0010   43.3531   39.3730 H           1 MOL       0.2100
     53 H21        62.4101   42.2827   33.8843 H           1 MOL       0.2095
     54 H22        54.7319   46.8383   35.9847 H           1 MOL       0.0586
     55 H23        54.7650   46.8076   37.7576 H           1 MOL       0.0586
     56 H24        57.0233   47.0614   35.7514 H           1 MOL       0.0702
     57 H25        57.7615   45.2509   37.4090 H           1 MOL       0.0654
     58 H26        58.5791   46.2192   39.6485 H           1 MOL       0.0674
     59 H27        58.5488   48.6227   39.1645 H           1 MOL       0.0850
     60 H28        57.3444   48.3154   40.4297 H           1 MOL       0.0850
     61 H29        55.5639   44.7691   37.7015 H           1 MOL       0.2095
     62 H30        56.6006   46.0581   40.6176 H           1 MOL       0.2101
     63 H31        56.5275   49.7232   38.6719 H           1 MOL       0.2348
     64 H32        55.6192   48.3349   38.8040 H           1 MOL       0.2348
@<TRIPOS>BOND
     1     1     2   1
     2     6     1   1
     3     1     7   1
     4     2     3   1
     5     2     8   1
     6     4     3   1
     7     3     9   1
     8     4     5   1
     9    10     4   1
    10     5    11   1
    11     6    10   1
    12    20     6   1
    13    12    13   1
    14    17    12   1
    15    12    18   1
    16    13    14   1
    17    13    19   1
    18    15    14   1
    19    14    20   1
    20    15    16   1
    21    21    15   1
    22    16    22   1
    23    17    21   1
    24    30    17   1
    25    24    23   1
    26    23    28   1
    27    25    24   1
    28    24    29   1
    29    25    26   1
    30    25    30   1
    31    26    27   1
    32    26    31   1
    33    27    32   1
    34    29    32   1
    35     1    33   1
    36     2    34   1
    37     3    35   1
    38     4    36   1
    39     5    37   1
    40     5    38   1
    41     6    39   1
    42     7    40   1
    43     8    41   1
    44     9    42   1
    45    11    43   1
    46    12    44   1
    47    13    45   1
    48    14    46   1
    49    15    47   1
    50    16    48   1
    51    16    49   1
    52    17    50   1
    53    18    51   1
    54    19    52   1
    55    22    53   1
    56    23    54   1
    57    23    55   1
    58    24    56   1
    59    25    57   1
    60    26    58   1
    61    27    59   1
    62    27    60   1
    63    28    61   1
    64    31    62   1
    65    32    63   1
    66    32    64   1
@<TRIPOS>SUBSTRUCTURE
     1  MOL      1

