@<TRIPOS>MOLECULE
1w3l_ligand_074
    64    66
SMALL
GAST_HUCK
****
This file was generated by PARSER (from files_GN.cpp)

@<TRIPOS>ATOM
      1 C2         56.5597   50.7706   37.5836 C.3         1 MOL       0.1341
      2 C3         56.4120   52.3146   37.6705 C.3         1 MOL       0.1141
      3 C4         55.5610   52.7416   38.8991 C.3         1 MOL       0.1119
      4 C5         56.0892   52.0529   40.1947 C.3         1 MOL       0.1130
      5 C6         55.1734   52.2989   41.4201 C.3         1 MOL       0.0730
      6 C1         57.0780   50.2132   38.9369 C.3         1 MOL       0.1884
      7 O2         57.4505   50.4427   36.5197 O.3         1 MOL      -0.3841
      8 O3         55.8313   52.8219   36.4685 O.3         1 MOL      -0.3864
      9 O4         55.6054   54.1649   39.0161 O.3         1 MOL      -0.3865
     10 O5         56.1912   50.6245   39.9961 O.3         1 MOL      -0.3405
     11 O6         55.5478   51.4664   42.5150 O.3         1 MOL      -0.3924
     12 C2         60.3451   46.9412   39.7931 C.3         1 MOL       0.1341
     13 C3         59.1129   47.8628   40.0172 C.3         1 MOL       0.1144
     14 C4         58.2844   48.0440   38.7060 C.3         1 MOL       0.1184
     15 C5         57.9364   46.6319   38.1334 C.3         1 MOL       0.1134
     16 C6         57.1993   46.6556   36.7693 C.3         1 MOL       0.0730
     17 C1         59.9283   45.6074   39.1187 C.3         1 MOL       0.1884
     18 O2         60.9802   46.6795   41.0436 O.3         1 MOL      -0.3841
     19 O3         59.5501   49.1143   40.5454 O.3         1 MOL      -0.3864
     20 O4         57.0587   48.7684   38.9576 O.3         1 MOL      -0.3401
     21 O5         59.1512   45.8801   37.9314 O.3         1 MOL      -0.3405
     22 O6         55.8356   47.0482   36.8912 O.3         1 MOL      -0.3924
     23 C6         60.5850   41.9178   38.0300 C.3         1 MOL       0.0782
     24 C5         61.8187   42.7875   37.6734 C.3         1 MOL       0.1538
     25 C4         61.4842   44.3084   37.5939 C.3         1 MOL       0.1259
     26 C3         62.7284   45.0925   37.0880 C.3         1 MOL       0.1245
     27 C2         63.3188   44.4295   35.8159 C.3         1 MOL       0.0256
     28 O6         60.2379   42.0420   39.4055 O.3         1 MOL      -0.3922
     29 O5         62.3208   42.3492   36.3934 O.3         1 MOL      -0.3215
     30 O4         61.0978   44.7832   38.9040 O.3         1 MOL      -0.3398
     31 O3         62.3877   46.4520   36.8243 O.3         1 MOL      -0.3838
     32 N1         63.4874   42.9774   36.0352 N.4         1 MOL       0.3939
     33 H1         55.5838   50.3278   37.3624 H           1 MOL       0.0671
     34 H2         57.4086   52.7564   37.7648 H           1 MOL       0.0648
     35 H3         54.5222   52.4426   38.7284 H           1 MOL       0.0647
     36 H4         57.0797   52.4526   40.4383 H           1 MOL       0.0647
     37 H5         54.1332   52.0823   41.1675 H           1 MOL       0.0584
     38 H6         55.2445   53.3400   41.7411 H           1 MOL       0.0584
     39 H7         58.0787   50.6127   39.1339 H           1 MOL       0.0938
     40 H8         57.4797   49.4644   36.5040 H           1 MOL       0.2101
     41 H9         54.9274   52.4432   36.4390 H           1 MOL       0.2100
     42 H10        54.9238   54.4001   39.6798 H           1 MOL       0.2100
     43 H11        56.4521   51.7546   42.7614 H           1 MOL       0.2095
     44 H12        61.0605   47.4618   39.1510 H           1 MOL       0.0671
     45 H13        58.4662   47.4143   40.7768 H           1 MOL       0.0648
     46 H14        58.8975   48.5709   37.9672 H           1 MOL       0.0651
     47 H15        57.2950   46.0913   38.8402 H           1 MOL       0.0647
     48 H16        57.2063   45.6525   36.3367 H           1 MOL       0.0584
     49 H17        57.7016   47.3256   36.0717 H           1 MOL       0.0584
     50 H18        59.3056   45.0433   39.8190 H           1 MOL       0.0938
     51 H19        61.8662   46.3334   40.8104 H           1 MOL       0.2101
     52 H20        60.1035   49.5201   39.8454 H           1 MOL       0.2100
     53 H21        55.8571   47.9549   37.2583 H           1 MOL       0.2095
     54 H22        60.7998   40.8646   37.8304 H           1 MOL       0.0586
     55 H23        59.7266   42.2144   37.4250 H           1 MOL       0.0586
     56 H24        62.5866   42.6153   38.4361 H           1 MOL       0.0702
     57 H25        60.6905   44.4232   36.8507 H           1 MOL       0.0654
     58 H26        63.4934   45.0912   37.8698 H           1 MOL       0.0674
     59 H27        64.2916   44.8674   35.5814 H           1 MOL       0.0850
     60 H28        62.6549   44.5882   34.9613 H           1 MOL       0.0850
     61 H29        60.9901   41.6402   39.8907 H           1 MOL       0.2095
     62 H30        61.7276   46.4183   36.0999 H           1 MOL       0.2101
     63 H31        64.1898   42.8232   36.7634 H           1 MOL       0.2348
     64 H32        63.8172   42.5532   35.1661 H           1 MOL       0.2348
@<TRIPOS>BOND
     1     1     2   1
     2     6     1   1
     3     1     7   1
     4     2     3   1
     5     2     8   1
     6     4     3   1
     7     3     9   1
     8     4     5   1
     9    10     4   1
    10     5    11   1
    11     6    10   1
    12    20     6   1
    13    12    13   1
    14    17    12   1
    15    12    18   1
    16    13    14   1
    17    13    19   1
    18    15    14   1
    19    14    20   1
    20    15    16   1
    21    21    15   1
    22    16    22   1
    23    17    21   1
    24    30    17   1
    25    24    23   1
    26    23    28   1
    27    25    24   1
    28    24    29   1
    29    25    26   1
    30    25    30   1
    31    26    27   1
    32    26    31   1
    33    27    32   1
    34    29    32   1
    35     1    33   1
    36     2    34   1
    37     3    35   1
    38     4    36   1
    39     5    37   1
    40     5    38   1
    41     6    39   1
    42     7    40   1
    43     8    41   1
    44     9    42   1
    45    11    43   1
    46    12    44   1
    47    13    45   1
    48    14    46   1
    49    15    47   1
    50    16    48   1
    51    16    49   1
    52    17    50   1
    53    18    51   1
    54    19    52   1
    55    22    53   1
    56    23    54   1
    57    23    55   1
    58    24    56   1
    59    25    57   1
    60    26    58   1
    61    27    59   1
    62    27    60   1
    63    28    61   1
    64    31    62   1
    65    32    63   1
    66    32    64   1
@<TRIPOS>SUBSTRUCTURE
     1  MOL      1

