@<TRIPOS>MOLECULE
1w3l_ligand_060
    64    66
SMALL
GAST_HUCK
****
This file was generated by PARSER (from files_GN.cpp)

@<TRIPOS>ATOM
      1 C2         57.7654   48.6810   41.6989 C.3         1 MOL       0.1341
      2 C3         57.2941   50.1502   41.8351 C.3         1 MOL       0.1141
      3 C4         57.6848   50.9698   40.5799 C.3         1 MOL       0.1119
      4 C5         57.1669   50.2681   39.2813 C.3         1 MOL       0.1130
      5 C6         57.6756   50.9873   38.0102 C.3         1 MOL       0.0730
      6 C1         57.2403   48.0732   40.3655 C.3         1 MOL       0.1884
      7 O2         57.3236   47.8925   42.8073 O.3         1 MOL      -0.3841
      8 O3         57.8638   50.7382   43.0003 O.3         1 MOL      -0.3864
      9 O4         57.1619   52.2987   40.6949 O.3         1 MOL      -0.3865
     10 O5         57.6002   48.8756   39.2060 O.3         1 MOL      -0.3405
     11 O6         56.8415   50.6949   36.8998 O.3         1 MOL      -0.3924
     12 C2         61.0483   44.9175   40.0383 C.3         1 MOL       0.1341
     13 C3         59.7204   45.4365   40.6611 C.3         1 MOL       0.1144
     14 C4         58.9896   46.4103   39.6921 C.3         1 MOL       0.1184
     15 C5         58.8238   45.7315   38.2974 C.3         1 MOL       0.1134
     16 C6         58.1638   46.6364   37.2253 C.3         1 MOL       0.0730
     17 C1         60.7928   44.3316   38.6180 C.3         1 MOL       0.1884
     18 O2         61.6508   43.9234   40.8777 O.3         1 MOL      -0.3841
     19 O3         60.0349   46.0667   41.9015 O.3         1 MOL      -0.3864
     20 O4         57.6769   46.7054   40.2144 O.3         1 MOL      -0.3401
     21 O5         60.1110   45.3044   37.7901 O.3         1 MOL      -0.3405
     22 O6         59.1410   47.4553   36.5723 O.3         1 MOL      -0.3924
     23 C6         64.2168   45.1717   36.3465 C.3         1 MOL       0.0782
     24 C5         62.8862   44.5376   35.8168 C.3         1 MOL       0.1538
     25 C4         62.2736   43.4558   36.7663 C.3         1 MOL       0.1259
     26 C3         61.0518   42.7600   36.1086 C.3         1 MOL       0.1245
     27 C2         61.3954   42.3115   34.6633 C.3         1 MOL       0.0256
     28 O6         64.7484   44.5658   37.5279 O.3         1 MOL      -0.3922
     29 O5         63.1293   43.9508   34.5113 O.3         1 MOL      -0.3215
     30 O4         62.0808   43.9612   38.0973 O.3         1 MOL      -0.3398
     31 O3         60.6653   41.6450   36.9054 O.3         1 MOL      -0.3838
     32 N1         61.9974   43.4406   33.9152 N.4         1 MOL       0.3939
     33 H1         58.8574   48.6646   41.6957 H           1 MOL       0.0671
     34 H2         56.2074   50.1616   41.9482 H           1 MOL       0.0648
     35 H3         58.7742   51.0478   40.5349 H           1 MOL       0.0647
     36 H4         56.0654   50.3118   39.2777 H           1 MOL       0.0647
     37 H5         58.6887   50.6681   37.7894 H           1 MOL       0.0584
     38 H6         57.6678   52.0662   38.1561 H           1 MOL       0.0584
     39 H7         56.1477   48.0334   40.4179 H           1 MOL       0.0938
     40 H8         56.3444   47.9414   42.7986 H           1 MOL       0.2101
     41 H9         57.4238   50.2958   43.7595 H           1 MOL       0.2100
     42 H10        56.1887   52.1909   40.6913 H           1 MOL       0.2100
     43 H11        57.2668   51.1362   36.1313 H           1 MOL       0.2095
     44 H12        61.7470   45.7613   39.9620 H           1 MOL       0.0671
     45 H13        59.0802   44.5754   40.8734 H           1 MOL       0.0648
     46 H14        59.6069   47.3018   39.5789 H           1 MOL       0.0651
     47 H15        58.1752   44.8591   38.4088 H           1 MOL       0.0647
     48 H16        57.4039   47.2973   37.6843 H           1 MOL       0.0584
     49 H17        57.6863   45.9998   36.4661 H           1 MOL       0.0584
     50 H18        60.1782   43.4309   38.7132 H           1 MOL       0.0938
     51 H19        62.4719   43.6519   40.4067 H           1 MOL       0.2101
     52 H20        59.1704   46.2599   42.3163 H           1 MOL       0.2100
     53 H21        59.0475   47.2610   35.6113 H           1 MOL       0.2095
     54 H22        64.0621   46.2327   36.5746 H           1 MOL       0.0586
     55 H23        65.0025   45.1116   35.5828 H           1 MOL       0.0586
     56 H24        62.1652   45.3520   35.6826 H           1 MOL       0.0702
     57 H25        63.0315   42.6823   36.8736 H           1 MOL       0.0654
     58 H26        60.2042   43.4415   36.0470 H           1 MOL       0.0674
     59 H27        60.4899   41.9888   34.1356 H           1 MOL       0.0850
     60 H28        62.1015   41.4761   34.6657 H           1 MOL       0.0850
     61 H29        64.9624   43.6461   37.2698 H           1 MOL       0.2095
     62 H30        60.9582   40.8338   36.4311 H           1 MOL       0.2101
     63 H31        61.3025   44.1895   33.8150 H           1 MOL       0.2348
     64 H32        62.2386   43.0961   32.9829 H           1 MOL       0.2348
@<TRIPOS>BOND
     1     1     2   1
     2     6     1   1
     3     1     7   1
     4     2     3   1
     5     2     8   1
     6     4     3   1
     7     3     9   1
     8     4     5   1
     9    10     4   1
    10     5    11   1
    11     6    10   1
    12    20     6   1
    13    12    13   1
    14    17    12   1
    15    12    18   1
    16    13    14   1
    17    13    19   1
    18    15    14   1
    19    14    20   1
    20    15    16   1
    21    21    15   1
    22    16    22   1
    23    17    21   1
    24    30    17   1
    25    24    23   1
    26    23    28   1
    27    25    24   1
    28    24    29   1
    29    25    26   1
    30    25    30   1
    31    26    27   1
    32    26    31   1
    33    27    32   1
    34    29    32   1
    35     1    33   1
    36     2    34   1
    37     3    35   1
    38     4    36   1
    39     5    37   1
    40     5    38   1
    41     6    39   1
    42     7    40   1
    43     8    41   1
    44     9    42   1
    45    11    43   1
    46    12    44   1
    47    13    45   1
    48    14    46   1
    49    15    47   1
    50    16    48   1
    51    16    49   1
    52    17    50   1
    53    18    51   1
    54    19    52   1
    55    22    53   1
    56    23    54   1
    57    23    55   1
    58    24    56   1
    59    25    57   1
    60    26    58   1
    61    27    59   1
    62    27    60   1
    63    28    61   1
    64    31    62   1
    65    32    63   1
    66    32    64   1
@<TRIPOS>SUBSTRUCTURE
     1  MOL      1

