@<TRIPOS>MOLECULE
1w3l_ligand_001
    64    66
SMALL
GAST_HUCK
****
This file was generated by PARSER (from files_GN.cpp)

@<TRIPOS>ATOM
      1 C2         59.3337   50.7002   41.0695 C.3         1 MOL       0.1341
      2 C3         60.2220   50.8781   42.3388 C.3         1 MOL       0.1141
      3 C4         60.5201   49.5176   43.0328 C.3         1 MOL       0.1119
      4 C5         61.0247   48.4704   41.9975 C.3         1 MOL       0.1130
      5 C6         61.1372   47.0480   42.6041 C.3         1 MOL       0.0730
      6 C1         59.9803   49.6458   40.1339 C.3         1 MOL       0.1884
      7 O2         59.1951   51.9446   40.3847 O.3         1 MOL      -0.3841
      8 O3         59.5915   51.7790   43.2568 O.3         1 MOL      -0.3864
      9 O4         61.4916   49.6950   44.0619 O.3         1 MOL      -0.3865
     10 O5         60.1281   48.4049   40.8653 O.3         1 MOL      -0.3405
     11 O6         61.1420   46.0334   41.5914 O.3         1 MOL      -0.3924
     12 C2         61.4562   47.8319   36.2538 C.3         1 MOL       0.1341
     13 C3         61.0673   48.8005   37.4038 C.3         1 MOL       0.1144
     14 C4         59.6018   48.5710   37.8868 C.3         1 MOL       0.1184
     15 C5         59.3437   47.0501   38.1586 C.3         1 MOL       0.1134
     16 C6         57.8500   46.7445   38.4253 C.3         1 MOL       0.0730
     17 C1         61.1804   46.3830   36.7198 C.3         1 MOL       0.1884
     18 O2         62.8289   47.9648   35.9038 O.3         1 MOL      -0.3841
     19 O3         61.2236   50.1521   36.9768 O.3         1 MOL      -0.3864
     20 O4         59.1640   49.4464   38.9635 O.3         1 MOL      -0.3401
     21 O5         59.7769   46.2419   37.0400 O.3         1 MOL      -0.3405
     22 O6         57.6064   45.3367   38.3593 O.3         1 MOL      -0.3924
     23 C6         63.7039   44.1172   37.5302 C.3         1 MOL       0.0782
     24 C5         63.0085   43.5405   36.2753 C.3         1 MOL       0.1538
     25 C4         61.5566   44.0652   36.0210 C.3         1 MOL       0.1259
     26 C3         60.9245   43.2876   34.8346 C.3         1 MOL       0.1245
     27 C2         61.0547   41.7641   35.0677 C.3         1 MOL       0.0256
     28 O6         62.8110   44.1260   38.6434 O.3         1 MOL      -0.3922
     29 O5         62.9773   42.1056   36.4384 O.3         1 MOL      -0.3215
     30 O4         61.5503   45.4680   35.6719 O.3         1 MOL      -0.3398
     31 O3         59.5519   43.6499   34.6814 O.3         1 MOL      -0.3838
     32 N1         62.4717   41.4453   35.3440 N.4         1 MOL       0.3939
     33 H1         58.3376   50.3525   41.3624 H           1 MOL       0.0671
     34 H2         61.1673   51.3454   42.0429 H           1 MOL       0.0648
     35 H3         59.5960   49.1563   43.4903 H           1 MOL       0.0647
     36 H4         62.0184   48.7523   41.6402 H           1 MOL       0.0647
     37 H5         60.2864   46.8380   43.2617 H           1 MOL       0.0584
     38 H6         62.0612   46.9543   43.1897 H           1 MOL       0.0584
     39 H7         60.9550   50.0399   39.8243 H           1 MOL       0.0938
     40 H8         58.5900   52.4820   40.9421 H           1 MOL       0.2101
     41 H9         58.7421   51.3416   43.5029 H           1 MOL       0.2100
     42 H10        61.0424   50.2253   44.7643 H           1 MOL       0.2100
     43 H11        61.9756   46.1726   41.0882 H           1 MOL       0.2095
     44 H12        60.8568   48.0497   35.3686 H           1 MOL       0.0671
     45 H13        61.7610   48.6261   38.2368 H           1 MOL       0.0648
     46 H14        58.9630   48.8398   37.0433 H           1 MOL       0.0651
     47 H15        59.9011   46.7217   39.0427 H           1 MOL       0.0647
     48 H16        57.2154   47.2445   37.6839 H           1 MOL       0.0584
     49 H17        57.5665   47.0976   39.4252 H           1 MOL       0.0584
     50 H18        61.7918   46.1853   37.6099 H           1 MOL       0.0938
     51 H19        63.0503   48.9120   36.0168 H           1 MOL       0.2101
     52 H20        62.1885   50.2964   36.9229 H           1 MOL       0.2100
     53 H21        56.6297   45.2443   38.4533 H           1 MOL       0.2095
     54 H22        64.0582   45.1308   37.3484 H           1 MOL       0.0586
     55 H23        64.5737   43.5032   37.7710 H           1 MOL       0.0586
     56 H24        63.6318   43.7855   35.4092 H           1 MOL       0.0702
     57 H25        60.9431   43.8569   36.9066 H           1 MOL       0.0654
     58 H26        61.4458   43.5485   33.9077 H           1 MOL       0.0674
     59 H27        60.7494   41.2152   34.1779 H           1 MOL       0.0850
     60 H28        60.4399   41.4431   35.9124 H           1 MOL       0.0850
     61 H29        63.2872   43.6654   39.3727 H           1 MOL       0.2095
     62 H30        59.2382   43.1698   33.8852 H           1 MOL       0.2101
     63 H31        63.0198   41.6881   34.5144 H           1 MOL       0.2348
     64 H32        62.5545   40.4382   35.4999 H           1 MOL       0.2348
@<TRIPOS>BOND
     1     1     2   1
     2     6     1   1
     3     1     7   1
     4     2     3   1
     5     2     8   1
     6     4     3   1
     7     3     9   1
     8     4     5   1
     9    10     4   1
    10     5    11   1
    11     6    10   1
    12    20     6   1
    13    12    13   1
    14    17    12   1
    15    12    18   1
    16    13    14   1
    17    13    19   1
    18    15    14   1
    19    14    20   1
    20    15    16   1
    21    21    15   1
    22    16    22   1
    23    17    21   1
    24    30    17   1
    25    24    23   1
    26    23    28   1
    27    25    24   1
    28    24    29   1
    29    25    26   1
    30    25    30   1
    31    26    27   1
    32    26    31   1
    33    27    32   1
    34    29    32   1
    35     1    33   1
    36     2    34   1
    37     3    35   1
    38     4    36   1
    39     5    37   1
    40     5    38   1
    41     6    39   1
    42     7    40   1
    43     8    41   1
    44     9    42   1
    45    11    43   1
    46    12    44   1
    47    13    45   1
    48    14    46   1
    49    15    47   1
    50    16    48   1
    51    16    49   1
    52    17    50   1
    53    18    51   1
    54    19    52   1
    55    22    53   1
    56    23    54   1
    57    23    55   1
    58    24    56   1
    59    25    57   1
    60    26    58   1
    61    27    59   1
    62    27    60   1
    63    28    61   1
    64    31    62   1
    65    32    63   1
    66    32    64   1
@<TRIPOS>SUBSTRUCTURE
     1  MOL      1

