@<TRIPOS>MOLECULE
1w3l_ligand_035
    64    66
SMALL
GAST_HUCK
****
This file was generated by PARSER (from files_GN.cpp)

@<TRIPOS>ATOM
      1 C2         57.3223   51.7943   36.5159 C.3         1 MOL       0.1341
      2 C3         56.3425   52.7213   37.2841 C.3         1 MOL       0.1141
      3 C4         55.2294   51.8992   37.9960 C.3         1 MOL       0.1119
      4 C5         55.8613   50.7704   38.8662 C.3         1 MOL       0.1130
      5 C6         54.8247   49.7741   39.4486 C.3         1 MOL       0.0730
      6 C1         57.8621   50.6874   37.4618 C.3         1 MOL       0.1884
      7 O2         58.4041   52.5656   35.9907 O.3         1 MOL      -0.3841
      8 O3         55.7529   53.6593   36.3864 O.3         1 MOL      -0.3864
      9 O4         54.4180   52.7663   38.7873 O.3         1 MOL      -0.3865
     10 O5         56.7628   49.9775   38.0672 O.3         1 MOL      -0.3405
     11 O6         53.9273   50.3893   40.3669 O.3         1 MOL      -0.3924
     12 C2         58.6564   46.0949   37.9578 C.3         1 MOL       0.1341
     13 C3         58.0702   47.4631   37.4884 C.3         1 MOL       0.1144
     14 C4         59.1565   48.5861   37.4295 C.3         1 MOL       0.1184
     15 C5         60.4090   48.0536   36.6680 C.3         1 MOL       0.1134
     16 C6         61.6161   49.0259   36.7270 C.3         1 MOL       0.0730
     17 C1         59.8875   45.7210   37.0942 C.3         1 MOL       0.1884
     18 O2         57.6606   45.0724   37.8851 O.3         1 MOL      -0.3841
     19 O3         56.9937   47.8156   38.3564 O.3         1 MOL      -0.3864
     20 O4         58.6610   49.7485   36.7169 O.3         1 MOL      -0.3401
     21 O5         60.8445   46.7870   37.2249 O.3         1 MOL      -0.3405
     22 O6         62.7416   48.4483   36.0530 O.3         1 MOL      -0.3924
     23 C6         63.7766   44.1367   35.4944 C.3         1 MOL       0.0782
     24 C5         62.2745   44.4945   35.6709 C.3         1 MOL       0.1538
     25 C4         61.5720   43.8098   36.9023 C.3         1 MOL       0.1259
     26 C3         61.1314   42.3526   36.5490 C.3         1 MOL       0.1245
     27 C2         60.4745   42.2806   35.1463 C.3         1 MOL       0.0256
     28 O6         64.6183   45.0717   36.1798 O.3         1 MOL      -0.3922
     29 O5         61.5274   44.2686   34.4479 O.3         1 MOL      -0.3215
     30 O4         60.4712   44.4908   37.5649 O.3         1 MOL      -0.3398
     31 O3         62.2504   41.4638   36.6018 O.3         1 MOL      -0.3838
     32 N1         61.3154   42.9527   34.1402 N.4         1 MOL       0.3939
     33 H1         56.7959   51.3264   35.6764 H           1 MOL       0.0671
     34 H2         56.9052   53.2869   38.0341 H           1 MOL       0.0648
     35 H3         54.5892   51.4447   37.2365 H           1 MOL       0.0647
     36 H4         56.4135   51.2166   39.7034 H           1 MOL       0.0647
     37 H5         55.3535   48.9829   39.9861 H           1 MOL       0.0584
     38 H6         54.2516   49.3137   38.6410 H           1 MOL       0.0584
     39 H7         58.4802   51.1526   38.2375 H           1 MOL       0.0938
     40 H8         58.1792   52.7221   35.0488 H           1 MOL       0.2101
     41 H9         55.3204   54.3289   36.9579 H           1 MOL       0.2100
     42 H10        55.0136   53.1372   39.4723 H           1 MOL       0.2100
     43 H11        53.3862   51.0029   39.8288 H           1 MOL       0.2095
     44 H12        58.9735   46.1770   39.0062 H           1 MOL       0.0671
     45 H13        57.6434   47.3337   36.4894 H           1 MOL       0.0648
     46 H14        59.4615   48.8246   38.4517 H           1 MOL       0.0651
     47 H15        60.1610   47.9105   35.6081 H           1 MOL       0.0647
     48 H16        61.8945   49.2376   37.7628 H           1 MOL       0.0584
     49 H17        61.3617   49.9720   36.2388 H           1 MOL       0.0584
     50 H18        59.5748   45.5819   36.0547 H           1 MOL       0.0938
     51 H19        57.0099   45.3080   38.5834 H           1 MOL       0.2101
     52 H20        57.4133   47.9822   39.2296 H           1 MOL       0.2100
     53 H21        63.2997   48.0810   36.7740 H           1 MOL       0.2095
     54 H22        64.0498   44.1660   34.4393 H           1 MOL       0.0586
     55 H23        63.9943   43.1365   35.8750 H           1 MOL       0.0586
     56 H24        62.2539   45.5781   35.8102 H           1 MOL       0.0702
     57 H25        62.3208   43.7372   37.6971 H           1 MOL       0.0654
     58 H26        60.4106   41.9933   37.2916 H           1 MOL       0.0674
     59 H27        59.4943   42.7618   35.1743 H           1 MOL       0.0850
     60 H28        60.3330   41.2394   34.8542 H           1 MOL       0.0850
     61 H29        64.5065   44.8728   37.1377 H           1 MOL       0.2095
     62 H30        61.9322   40.5939   36.2717 H           1 MOL       0.2101
     63 H31        60.8104   42.9219   33.2492 H           1 MOL       0.2348
     64 H32        62.2125   42.4688   34.0283 H           1 MOL       0.2348
@<TRIPOS>BOND
     1     1     2   1
     2     6     1   1
     3     1     7   1
     4     2     3   1
     5     2     8   1
     6     4     3   1
     7     3     9   1
     8     4     5   1
     9    10     4   1
    10     5    11   1
    11     6    10   1
    12    20     6   1
    13    12    13   1
    14    17    12   1
    15    12    18   1
    16    13    14   1
    17    13    19   1
    18    15    14   1
    19    14    20   1
    20    15    16   1
    21    21    15   1
    22    16    22   1
    23    17    21   1
    24    30    17   1
    25    24    23   1
    26    23    28   1
    27    25    24   1
    28    24    29   1
    29    25    26   1
    30    25    30   1
    31    26    27   1
    32    26    31   1
    33    27    32   1
    34    29    32   1
    35     1    33   1
    36     2    34   1
    37     3    35   1
    38     4    36   1
    39     5    37   1
    40     5    38   1
    41     6    39   1
    42     7    40   1
    43     8    41   1
    44     9    42   1
    45    11    43   1
    46    12    44   1
    47    13    45   1
    48    14    46   1
    49    15    47   1
    50    16    48   1
    51    16    49   1
    52    17    50   1
    53    18    51   1
    54    19    52   1
    55    22    53   1
    56    23    54   1
    57    23    55   1
    58    24    56   1
    59    25    57   1
    60    26    58   1
    61    27    59   1
    62    27    60   1
    63    28    61   1
    64    31    62   1
    65    32    63   1
    66    32    64   1
@<TRIPOS>SUBSTRUCTURE
     1  MOL      1

