@<TRIPOS>MOLECULE
1w4o_ligand_051
    32    33
SMALL
GAST_HUCK
****
This file was generated by PARSER (from files_GN.cpp)

@<TRIPOS>ATOM
      1 N1         40.8965    8.3831    7.0849 N.am        1 UA3      -0.1592
      2 C2         40.4146    9.3695    7.8718 C.2         1 UA3       0.3328
      3 O2         41.0936   10.3039    8.2759 O.2         1 UA3      -0.3815
      4 N3         39.1398    9.3552    8.2550 N.am        1 UA3      -0.1865
      5 C4         38.3151    8.3780    7.8988 C.2         1 UA3       0.1822
      6 O4         37.1429    8.4335    8.2387 O.2         1 UA3      -0.4124
      7 C5         38.7684    7.3389    7.1448 C.2         1 UA3       0.0062
      8 C6         40.0562    7.3508    6.7546 C.2         1 UA3       0.0591
      9 O5         42.8843    6.3162    3.0032 O.3         1 UA3      -0.3924
     10 C5         43.1306    5.7389    4.2814 C.3         1 UA3       0.0734
     11 C4         43.4624    6.8511    5.3055 C.3         1 UA3       0.1182
     12 O4         42.4051    7.8180    5.3137 O.3         1 UA3      -0.3363
     13 C3         43.5970    6.3578    6.7621 C.3         1 UA3       0.1483
     14 O3         44.7953    5.6191    7.1152 O.3         1 UA3      -0.2675
     15 C2         43.2449    7.6136    7.5750 C.3         1 UA3       0.1433
     16 O2         42.7008    7.2606    8.8507 O.3         1 UA3      -0.3833
     17 C1         42.2783    8.3814    6.6340 C.3         1 UA3       0.2062
     18 O3P        47.0585    5.2742    7.8644 O.co2       1 UA3      -0.5537
     19 P          46.1935    6.2821    7.2844 P.3         1 UA3       0.2013
     20 O1P        46.2279    7.3454    8.2518 O.co2       1 UA3      -0.5537
     21 O2P        46.8156    6.6898    6.0514 O.co2       1 UA3      -0.5537
     22 H1         38.8029   10.0855    8.7994 H           1 UA3       0.2259
     23 H2         38.1715    6.5814    6.9043 H           1 UA3       0.0258
     24 H3         40.3837    6.5784    6.2218 H           1 UA3       0.1178
     25 H4         41.9088    6.4123    2.9467 H           1 UA3       0.2095
     26 H5         43.9706    5.0516    4.1961 H           1 UA3       0.0584
     27 H6         42.2469    5.1750    4.5894 H           1 UA3       0.0584
     28 H7         44.3741    7.3612    4.9876 H           1 UA3       0.0650
     29 H8         42.7873    5.6420    6.9344 H           1 UA3       0.0704
     30 H9         44.1288    8.2306    7.7466 H           1 UA3       0.0680
     31 H10        42.5244    8.1145    9.3014 H           1 UA3       0.2101
     32 H11        42.6430    9.4123    6.5280 H           1 UA3       0.0997
@<TRIPOS>BOND
     1     1     2  am
     2     1     8   1
     3    17     1   1
     4     2     3   2
     5     2     4  am
     6     4     5  am
     7     5     6   2
     8     7     5   1
     9     8     7   2
    10    10     9   1
    11    11    10   1
    12    12    11   1
    13    11    13   1
    14    12    17   1
    15    13    14   1
    16    13    15   1
    17    14    19   1
    18    15    16   1
    19    15    17   1
    20    19    18  ar
    21    19    20  ar
    22    19    21  ar
    23     4    22   1
    24     7    23   1
    25     8    24   1
    26     9    25   1
    27    10    26   1
    28    10    27   1
    29    11    28   1
    30    13    29   1
    31    15    30   1
    32    16    31   1
    33    17    32   1
@<TRIPOS>SUBSTRUCTURE
     1  UA3      2

