@<TRIPOS>MOLECULE
1w4o_ligand_055
    32    33
SMALL
GAST_HUCK
****
This file was generated by PARSER (from files_GN.cpp)

@<TRIPOS>ATOM
      1 N1         40.9364    8.7093    5.0295 N.am        1 UA3      -0.1592
      2 C2         41.6931    8.8447    3.9148 C.2         1 UA3       0.3328
      3 O2         42.6836    8.1698    3.6775 O.2         1 UA3      -0.3815
      4 N3         41.3608    9.7388    2.9813 N.am        1 UA3      -0.1865
      5 C4         40.2555   10.4720    3.0761 C.2         1 UA3       0.1822
      6 O4         39.9818   11.2468    2.1689 O.2         1 UA3      -0.4124
      7 C5         39.4176   10.3101    4.1307 C.2         1 UA3       0.0062
      8 C6         39.7674    9.4255    5.0886 C.2         1 UA3       0.0591
      9 O5         43.0641    7.5378   10.4129 O.3         1 UA3      -0.3924
     10 C5         42.3376    8.3945    9.5391 C.3         1 UA3       0.0734
     11 C4         41.6224    7.5906    8.4256 C.3         1 UA3       0.1182
     12 O4         41.1735    8.4896    7.4000 O.3         1 UA3      -0.3363
     13 C3         42.5220    6.5275    7.7259 C.3         1 UA3       0.1483
     14 O3         41.9929    5.1758    7.7151 O.3         1 UA3      -0.2675
     15 C2         42.5632    7.0690    6.2775 C.3         1 UA3       0.1433
     16 O2         43.6564    7.9790    6.1299 O.3         1 UA3      -0.3833
     17 C1         41.2074    7.8012    6.1378 C.3         1 UA3       0.2062
     18 O3P        40.5513    4.6128    9.6497 O.co2       1 UA3      -0.5537
     19 P          41.8595    4.4177    9.0800 P.3         1 UA3       0.2013
     20 O1P        42.8663    4.7303   10.0600 O.co2       1 UA3      -0.5537
     21 O2P        41.9615    3.0086    8.8117 O.co2       1 UA3      -0.5537
     22 H1         41.9326    9.8490    2.2055 H           1 UA3       0.2259
     23 H2         38.5557   10.7995    4.1903 H           1 UA3       0.0258
     24 H3         39.1405    9.3078    5.8499 H           1 UA3       0.1178
     25 H4         42.4232    6.8679   10.7315 H           1 UA3       0.2095
     26 H5         41.6042    8.9430   10.1275 H           1 UA3       0.0584
     27 H6         43.0342    9.1116    9.1045 H           1 UA3       0.0584
     28 H7         40.7303    7.1205    8.8507 H           1 UA3       0.0650
     29 H8         43.5449    6.5146    8.1237 H           1 UA3       0.0704
     30 H9         42.6631    6.2684    5.5410 H           1 UA3       0.0680
     31 H10        44.4581    7.4130    6.1309 H           1 UA3       0.2101
     32 H11        40.4130    7.0453    6.1240 H           1 UA3       0.0997
@<TRIPOS>BOND
     1     1     2  am
     2     1     8   1
     3    17     1   1
     4     2     3   2
     5     2     4  am
     6     4     5  am
     7     5     6   2
     8     7     5   1
     9     8     7   2
    10    10     9   1
    11    11    10   1
    12    12    11   1
    13    11    13   1
    14    12    17   1
    15    13    14   1
    16    13    15   1
    17    14    19   1
    18    15    16   1
    19    15    17   1
    20    19    18  ar
    21    19    20  ar
    22    19    21  ar
    23     4    22   1
    24     7    23   1
    25     8    24   1
    26     9    25   1
    27    10    26   1
    28    10    27   1
    29    11    28   1
    30    13    29   1
    31    15    30   1
    32    16    31   1
    33    17    32   1
@<TRIPOS>SUBSTRUCTURE
     1  UA3      2

