@<TRIPOS>MOLECULE
1w4o_ligand_038
    32    33
SMALL
GAST_HUCK
****
This file was generated by PARSER (from files_GN.cpp)

@<TRIPOS>ATOM
      1 N1         43.2459    9.5711    6.3004 N.am        1 UA3      -0.1592
      2 C2         44.5069    9.8241    6.7215 C.2         1 UA3       0.3328
      3 O2         45.3033    8.9451    7.0255 O.2         1 UA3      -0.3815
      4 N3         44.9483   11.0742    6.8349 N.am        1 UA3      -0.1865
      5 C4         44.1817   12.1134    6.5099 C.2         1 UA3       0.1822
      6 O4         44.6323   13.2422    6.6138 O.2         1 UA3      -0.4124
      7 C5         42.9124   11.9140    6.0489 C.2         1 UA3       0.0062
      8 C6         42.4621   10.6472    5.9599 C.2         1 UA3       0.0591
      9 O5         38.6068    7.9011    7.0857 O.3         1 UA3      -0.3924
     10 C5         39.2420    7.0333    6.1397 C.3         1 UA3       0.0734
     11 C4         40.7862    6.9744    6.2863 C.3         1 UA3       0.1182
     12 O4         41.3946    8.1238    5.6973 O.3         1 UA3      -0.3363
     13 C3         41.3212    6.9484    7.7266 C.3         1 UA3       0.1483
     14 O3         41.0823    5.6405    8.3021 O.3         1 UA3      -0.2675
     15 C2         42.7914    7.3681    7.5022 C.3         1 UA3       0.1433
     16 O2         43.2776    8.0538    8.6586 O.3         1 UA3      -0.3833
     17 C1         42.7498    8.2067    6.1874 C.3         1 UA3       0.2062
     18 O3P        42.1549    4.8880   10.3972 O.co2       1 UA3      -0.5537
     19 P          40.9807    5.5321    9.8496 P.3         1 UA3       0.2013
     20 O1P        39.8492    4.6911   10.1584 O.co2       1 UA3      -0.5537
     21 O2P        40.7591    6.7987   10.5051 O.co2       1 UA3      -0.5537
     22 H1         45.8480   11.2409    7.1599 H           1 UA3       0.2259
     23 H2         42.3368   12.6827    5.7682 H           1 UA3       0.0258
     24 H3         41.5321   10.5060    5.6319 H           1 UA3       0.1178
     25 H4         38.1797    7.2926    7.7297 H           1 UA3       0.2095
     26 H5         38.9985    7.4064    5.1388 H           1 UA3       0.0584
     27 H6         38.8207    6.0205    6.2361 H           1 UA3       0.0584
     28 H7         41.1246    6.0798    5.7517 H           1 UA3       0.0650
     29 H8         40.8028    7.7284    8.2971 H           1 UA3       0.0704
     30 H9         43.4044    6.4700    7.3479 H           1 UA3       0.0680
     31 H10        44.2531    8.0075    8.5929 H           1 UA3       0.2101
     32 H11        43.3535    7.6969    5.4277 H           1 UA3       0.0997
@<TRIPOS>BOND
     1     1     2  am
     2     1     8   1
     3    17     1   1
     4     2     3   2
     5     2     4  am
     6     4     5  am
     7     5     6   2
     8     7     5   1
     9     8     7   2
    10    10     9   1
    11    11    10   1
    12    12    11   1
    13    11    13   1
    14    12    17   1
    15    13    14   1
    16    13    15   1
    17    14    19   1
    18    15    16   1
    19    15    17   1
    20    19    18  ar
    21    19    20  ar
    22    19    21  ar
    23     4    22   1
    24     7    23   1
    25     8    24   1
    26     9    25   1
    27    10    26   1
    28    10    27   1
    29    11    28   1
    30    13    29   1
    31    15    30   1
    32    16    31   1
    33    17    32   1
@<TRIPOS>SUBSTRUCTURE
     1  UA3      2

