@<TRIPOS>MOLECULE
1w4o_ligand_029
    32    33
SMALL
GAST_HUCK
****
This file was generated by PARSER (from files_GN.cpp)

@<TRIPOS>ATOM
      1 N1         40.8426    5.6348    7.9497 N.am        1 UA3      -0.1592
      2 C2         40.2808    6.6393    8.6608 C.2         1 UA3       0.3328
      3 O2         40.4729    6.8088    9.8606 O.2         1 UA3      -0.3815
      4 N3         39.4634    7.5071    8.0668 N.am        1 UA3      -0.1865
      5 C4         39.1613    7.4061    6.7732 C.2         1 UA3       0.1822
      6 O4         38.3696    8.2016    6.2799 O.2         1 UA3      -0.4124
      7 C5         39.7009    6.4040    6.0240 C.2         1 UA3       0.0062
      8 C6         40.5346    5.5321    6.6218 C.2         1 UA3       0.0591
      9 O5         39.9603    4.0686   12.0678 O.3         1 UA3      -0.3924
     10 C5         40.8715    3.0261   11.7082 C.3         1 UA3       0.0734
     11 C4         41.8067    3.4258   10.5314 C.3         1 UA3       0.1182
     12 O4         40.9480    3.8681    9.4758 O.3         1 UA3      -0.3363
     13 C3         42.8027    4.6030   10.7675 C.3         1 UA3       0.1483
     14 O3         44.1540    4.4475   11.2789 O.3         1 UA3      -0.2675
     15 C2         42.9458    5.1878    9.3474 C.3         1 UA3       0.1433
     16 O2         43.0842    6.6075    9.3680 O.3         1 UA3      -0.3833
     17 C1         41.7207    4.6506    8.5659 C.3         1 UA3       0.2062
     18 O3P        43.6462    3.3418   13.5038 O.co2       1 UA3      -0.5537
     19 P          44.5138    3.3789   12.3431 P.3         1 UA3       0.2013
     20 O1P        45.8483    3.6720   12.8074 O.co2       1 UA3      -0.5537
     21 O2P        44.5790    2.0758   11.7203 O.co2       1 UA3      -0.5537
     22 H1         39.0696    8.2195    8.5887 H           1 UA3       0.2259
     23 H2         39.4743    6.3104    5.0550 H           1 UA3       0.0258
     24 H3         40.9077    4.7966    6.0638 H           1 UA3       0.1178
     25 H4         39.4296    4.2229   11.2560 H           1 UA3       0.2095
     26 H5         40.2863    2.1423   11.4154 H           1 UA3       0.0584
     27 H6         41.4589    2.7568   12.5912 H           1 UA3       0.0584
     28 H7         42.3548    2.5345   10.1901 H           1 UA3       0.0650
     29 H8         42.3085    5.3394   11.4179 H           1 UA3       0.0704
     30 H9         43.8521    4.7973    8.8716 H           1 UA3       0.0680
     31 H10        43.9494    6.7724    9.8276 H           1 UA3       0.2101
     32 H11        42.0947    3.9326    7.8218 H           1 UA3       0.0997
@<TRIPOS>BOND
     1     1     2  am
     2     1     8   1
     3    17     1   1
     4     2     3   2
     5     2     4  am
     6     4     5  am
     7     5     6   2
     8     7     5   1
     9     8     7   2
    10    10     9   1
    11    11    10   1
    12    12    11   1
    13    11    13   1
    14    12    17   1
    15    13    14   1
    16    13    15   1
    17    14    19   1
    18    15    16   1
    19    15    17   1
    20    19    18  ar
    21    19    20  ar
    22    19    21  ar
    23     4    22   1
    24     7    23   1
    25     8    24   1
    26     9    25   1
    27    10    26   1
    28    10    27   1
    29    11    28   1
    30    13    29   1
    31    15    30   1
    32    16    31   1
    33    17    32   1
@<TRIPOS>SUBSTRUCTURE
     1  UA3      2

