@<TRIPOS>MOLECULE
1w4o_ligand_030
    32    33
SMALL
GAST_HUCK
****
This file was generated by PARSER (from files_GN.cpp)

@<TRIPOS>ATOM
      1 N1         41.2006    7.5487    4.7202 N.am        1 UA3      -0.1592
      2 C2         41.2297    8.6062    3.8790 C.2         1 UA3       0.3328
      3 O2         42.0290    8.7060    2.9583 O.2         1 UA3      -0.3815
      4 N3         40.3569    9.6030    4.0261 N.am        1 UA3      -0.1865
      5 C4         39.4426    9.5936    4.9930 C.2         1 UA3       0.1822
      6 O4         38.6572   10.5256    5.0796 O.2         1 UA3      -0.4124
      7 C5         39.3877    8.5578    5.8691 C.2         1 UA3       0.0062
      8 C6         40.2734    7.5526    5.7289 C.2         1 UA3       0.0591
      9 O5         42.9445    4.1275    8.4730 O.3         1 UA3      -0.3924
     10 C5         42.3026    3.8839    7.2241 C.3         1 UA3       0.0734
     11 C4         42.8411    4.7452    6.0438 C.3         1 UA3       0.1182
     12 O4         41.7512    5.2727    5.2864 O.3         1 UA3      -0.3363
     13 C3         43.7221    5.9569    6.4249 C.3         1 UA3       0.1483
     14 O3         45.0496    5.4758    6.7417 O.3         1 UA3      -0.2675
     15 C2         43.5743    6.8511    5.1809 C.3         1 UA3       0.1433
     16 O2         43.7327    8.2193    5.5443 O.3         1 UA3      -0.3833
     17 C1         42.1771    6.4734    4.6155 C.3         1 UA3       0.2062
     18 O3P        45.9461    7.6664    7.6109 O.co2       1 UA3      -0.5537
     19 P          46.2404    6.4734    6.8501 P.3         1 UA3       0.2013
     20 O1P        46.7040    6.8373    5.5330 O.co2       1 UA3      -0.5537
     21 O2P        47.3379    5.7864    7.4779 O.co2       1 UA3      -0.5537
     22 H1         40.3882   10.3547    3.4088 H           1 UA3       0.2259
     23 H2         38.7245    8.5416    6.6093 H           1 UA3       0.0258
     24 H3         40.2422    6.8103    6.3929 H           1 UA3       0.1178
     25 H4         42.5562    4.9796    8.7921 H           1 UA3       0.2095
     26 H5         41.2307    4.0544    7.3635 H           1 UA3       0.0584
     27 H6         42.4479    2.8280    6.9962 H           1 UA3       0.0584
     28 H7         43.4130    4.0974    5.3756 H           1 UA3       0.0650
     29 H8         43.2913    6.4656    7.2961 H           1 UA3       0.0704
     30 H9         44.3394    6.5903    4.4520 H           1 UA3       0.0680
     31 H10        43.4664    8.7359    4.7471 H           1 UA3       0.2101
     32 H11        42.2912    6.1897    3.5607 H           1 UA3       0.0997
@<TRIPOS>BOND
     1     1     2  am
     2     1     8   1
     3    17     1   1
     4     2     3   2
     5     2     4  am
     6     4     5  am
     7     5     6   2
     8     7     5   1
     9     8     7   2
    10    10     9   1
    11    11    10   1
    12    12    11   1
    13    11    13   1
    14    12    17   1
    15    13    14   1
    16    13    15   1
    17    14    19   1
    18    15    16   1
    19    15    17   1
    20    19    18  ar
    21    19    20  ar
    22    19    21  ar
    23     4    22   1
    24     7    23   1
    25     8    24   1
    26     9    25   1
    27    10    26   1
    28    10    27   1
    29    11    28   1
    30    13    29   1
    31    15    30   1
    32    16    31   1
    33    17    32   1
@<TRIPOS>SUBSTRUCTURE
     1  UA3      2

