@<TRIPOS>MOLECULE
1w4o_ligand_025
    32    33
SMALL
GAST_HUCK
****
This file was generated by PARSER (from files_GN.cpp)

@<TRIPOS>ATOM
      1 N1         42.5955    7.8018    6.1729 N.am        1 UA3      -0.1592
      2 C2         41.9842    7.9361    4.9657 C.2         1 UA3       0.3328
      3 O2         42.5524    7.8028    3.8882 O.2         1 UA3      -0.3815
      4 N3         40.6879    8.2440    4.9028 N.am        1 UA3      -0.1865
      5 C4         39.9581    8.4464    5.9930 C.2         1 UA3       0.1822
      6 O4         38.7644    8.7039    5.8808 O.2         1 UA3      -0.4124
      7 C5         40.5331    8.3359    7.2264 C.2         1 UA3       0.0062
      8 C6         41.8375    7.9984    7.2932 C.2         1 UA3       0.0591
      9 O5         46.1902    6.3785    9.7917 O.3         1 UA3      -0.3924
     10 C5         46.0401    5.5378    8.6456 C.3         1 UA3       0.0734
     11 C4         45.6964    6.3074    7.3379 C.3         1 UA3       0.1182
     12 O4         44.2649    6.3462    7.1683 O.3         1 UA3      -0.3363
     13 C3         46.2198    7.7734    7.2116 C.3         1 UA3       0.1483
     14 O3         47.1839    7.8665    6.1319 O.3         1 UA3      -0.2675
     15 C2         44.9323    8.5499    6.8700 C.3         1 UA3       0.1433
     16 O2         44.4075    9.1625    8.0494 O.3         1 UA3      -0.3833
     17 C1         44.0073    7.4529    6.2922 C.3         1 UA3       0.2062
     18 O3P        49.3686    8.8532    6.6587 O.co2       1 UA3      -0.5537
     19 P          48.0851    9.1343    6.0576 P.3         1 UA3       0.2013
     20 O1P        47.5472   10.3353    6.6614 O.co2       1 UA3      -0.5537
     21 O2P        48.3426    9.4086    4.6666 O.co2       1 UA3      -0.5537
     22 H1         40.2578    8.3228    4.0318 H           1 UA3       0.2259
     23 H2         40.0012    8.4978    8.0530 H           1 UA3       0.0258
     24 H3         42.2312    7.8904    8.1951 H           1 UA3       0.1178
     25 H4         45.2833    6.7318    9.9709 H           1 UA3       0.2095
     26 H5         46.9755    4.9812    8.5139 H           1 UA3       0.0584
     27 H6         45.2412    4.8132    8.8676 H           1 UA3       0.0584
     28 H7         46.0824    5.7069    6.5149 H           1 UA3       0.0650
     29 H8         46.6427    8.1201    8.1635 H           1 UA3       0.0704
     30 H9         45.0957    9.3363    6.1289 H           1 UA3       0.0680
     31 H10        44.3649    8.4506    8.7175 H           1 UA3       0.2101
     32 H11        44.4020    7.1708    5.3014 H           1 UA3       0.0997
@<TRIPOS>BOND
     1     1     2  am
     2     1     8   1
     3    17     1   1
     4     2     3   2
     5     2     4  am
     6     4     5  am
     7     5     6   2
     8     7     5   1
     9     8     7   2
    10    10     9   1
    11    11    10   1
    12    12    11   1
    13    11    13   1
    14    12    17   1
    15    13    14   1
    16    13    15   1
    17    14    19   1
    18    15    16   1
    19    15    17   1
    20    19    18  ar
    21    19    20  ar
    22    19    21  ar
    23     4    22   1
    24     7    23   1
    25     8    24   1
    26     9    25   1
    27    10    26   1
    28    10    27   1
    29    11    28   1
    30    13    29   1
    31    15    30   1
    32    16    31   1
    33    17    32   1
@<TRIPOS>SUBSTRUCTURE
     1  UA3      2

