@<TRIPOS>MOLECULE
1w4o_ligand_050
    32    33
SMALL
GAST_HUCK
****
This file was generated by PARSER (from files_GN.cpp)

@<TRIPOS>ATOM
      1 N1         43.6855    6.6759    7.7951 N.am        1 UA3      -0.1592
      2 C2         43.8199    6.8365    6.4576 C.2         1 UA3       0.3328
      3 O2         42.8989    7.1741    5.7206 O.2         1 UA3      -0.3815
      4 N3         44.9886    6.6182    5.8588 N.am        1 UA3      -0.1865
      5 C4         46.0707    6.2772    6.5604 C.2         1 UA3       0.1822
      6 O4         47.1405    6.1429    5.9748 O.2         1 UA3      -0.4124
      7 C5         45.9882    6.0945    7.9082 C.2         1 UA3       0.0062
      8 C6         44.8003    6.3003    8.5058 C.2         1 UA3       0.0591
      9 O5         38.4927    8.1189    6.3054 O.3         1 UA3      -0.3924
     10 C5         39.2190    6.9507    6.7234 C.3         1 UA3       0.0734
     11 C4         40.2153    7.2384    7.8874 C.3         1 UA3       0.1182
     12 O4         41.3353    6.3411    7.7844 O.3         1 UA3      -0.3363
     13 C3         40.8156    8.6621    7.9085 C.3         1 UA3       0.1483
     14 O3         39.8833    9.5475    8.5702 O.3         1 UA3      -0.2675
     15 C2         42.1211    8.4432    8.6993 C.3         1 UA3       0.1433
     16 O2         43.1575    9.3461    8.2990 O.3         1 UA3      -0.3833
     17 C1         42.4344    6.9378    8.4945 C.3         1 UA3       0.2062
     18 O3P        39.0521   11.6879    9.2352 O.co2       1 UA3      -0.5537
     19 P          40.0351   11.0834    8.3629 P.3         1 UA3       0.2013
     20 O1P        39.6878   11.4776    7.0176 O.co2       1 UA3      -0.5537
     21 O2P        41.3233   11.6134    8.7399 O.co2       1 UA3      -0.5537
     22 H1         45.0603    6.7362    4.8995 H           1 UA3       0.2259
     23 H2         46.7916    5.8391    8.4410 H           1 UA3       0.0258
     24 H3         44.7536    6.1956    9.4969 H           1 UA3       0.1178
     25 H4         39.1717    8.6624    5.8406 H           1 UA3       0.2095
     26 H5         39.7432    6.5273    5.8547 H           1 UA3       0.0584
     27 H6         38.4804    6.2077    7.0590 H           1 UA3       0.0584
     28 H7         39.6995    7.0490    8.8429 H           1 UA3       0.0650
     29 H8         41.0507    8.9680    6.8799 H           1 UA3       0.0704
     30 H9         41.9307    8.6168    9.7614 H           1 UA3       0.0680
     31 H10        43.2376    9.2417    7.3265 H           1 UA3       0.2101
     32 H11        42.4438    6.4480    9.4757 H           1 UA3       0.0997
@<TRIPOS>BOND
     1     1     2  am
     2     1     8   1
     3    17     1   1
     4     2     3   2
     5     2     4  am
     6     4     5  am
     7     5     6   2
     8     7     5   1
     9     8     7   2
    10    10     9   1
    11    11    10   1
    12    12    11   1
    13    11    13   1
    14    12    17   1
    15    13    14   1
    16    13    15   1
    17    14    19   1
    18    15    16   1
    19    15    17   1
    20    19    18  ar
    21    19    20  ar
    22    19    21  ar
    23     4    22   1
    24     7    23   1
    25     8    24   1
    26     9    25   1
    27    10    26   1
    28    10    27   1
    29    11    28   1
    30    13    29   1
    31    15    30   1
    32    16    31   1
    33    17    32   1
@<TRIPOS>SUBSTRUCTURE
     1  UA3      2

