@<TRIPOS>MOLECULE
1w4o_ligand_018
    32    33
SMALL
GAST_HUCK
****
This file was generated by PARSER (from files_GN.cpp)

@<TRIPOS>ATOM
      1 N1         40.6097    6.5040    7.4505 N.am        1 UA3      -0.1592
      2 C2         40.6004    6.1331    8.7493 C.2         1 UA3       0.3328
      3 O2         40.1290    6.8392    9.6321 O.2         1 UA3      -0.3815
      4 N3         41.1750    4.9853    9.1210 N.am        1 UA3      -0.1865
      5 C4         41.7869    4.1940    8.2406 C.2         1 UA3       0.1822
      6 O4         42.4219    3.2387    8.6563 O.2         1 UA3      -0.4124
      7 C5         41.7805    4.5097    6.9208 C.2         1 UA3       0.0062
      8 C6         41.1993    5.6619    6.5399 C.2         1 UA3       0.0591
      9 O5         41.8295    9.1533    3.7860 O.3         1 UA3      -0.3924
     10 C5         40.9736   10.1589    4.3653 C.3         1 UA3       0.0734
     11 C4         40.1489    9.5868    5.5512 C.3         1 UA3       0.1182
     12 O4         40.3546    8.1753    5.6831 O.3         1 UA3      -0.3363
     13 C3         40.5061   10.1897    6.9305 C.3         1 UA3       0.1483
     14 O3         39.6263   11.3244    7.1648 O.3         1 UA3      -0.2675
     15 C2         40.3481    8.9877    7.9033 C.3         1 UA3       0.1433
     16 O2         41.5197    8.8110    8.6968 O.3         1 UA3      -0.3833
     17 C1         40.0063    7.7600    7.0194 C.3         1 UA3       0.2062
     18 O3P        38.8615   13.2342    8.4360 O.co2       1 UA3      -0.5537
     19 P          39.8127   12.1530    8.4703 P.3         1 UA3       0.2013
     20 O1P        41.1211   12.7551    8.5591 O.co2       1 UA3      -0.5537
     21 O2P        39.5412   11.3809    9.6586 O.co2       1 UA3      -0.5537
     22 H1         41.1962    4.7606   10.0660 H           1 UA3       0.2259
     23 H2         42.1960    3.9037    6.2560 H           1 UA3       0.0258
     24 H3         41.1977    5.8633    5.5678 H           1 UA3       0.1178
     25 H4         42.5881    9.6652    3.3897 H           1 UA3       0.2095
     26 H5         40.2929   10.5278    3.5802 H           1 UA3       0.0584
     27 H6         41.5923   11.0065    4.7142 H           1 UA3       0.0584
     28 H7         39.0825    9.7431    5.3444 H           1 UA3       0.0650
     29 H8         41.5536   10.5232    6.8974 H           1 UA3       0.0704
     30 H9         39.5208    9.1775    8.5879 H           1 UA3       0.0680
     31 H10        42.2396    8.5969    8.0542 H           1 UA3       0.2101
     32 H11        38.9192    7.6217    7.0194 H           1 UA3       0.0997
@<TRIPOS>BOND
     1     1     2  am
     2     1     8   1
     3    17     1   1
     4     2     3   2
     5     2     4  am
     6     4     5  am
     7     5     6   2
     8     7     5   1
     9     8     7   2
    10    10     9   1
    11    11    10   1
    12    12    11   1
    13    11    13   1
    14    12    17   1
    15    13    14   1
    16    13    15   1
    17    14    19   1
    18    15    16   1
    19    15    17   1
    20    19    18  ar
    21    19    20  ar
    22    19    21  ar
    23     4    22   1
    24     7    23   1
    25     8    24   1
    26     9    25   1
    27    10    26   1
    28    10    27   1
    29    11    28   1
    30    13    29   1
    31    15    30   1
    32    16    31   1
    33    17    32   1
@<TRIPOS>SUBSTRUCTURE
     1  UA3      2

