@<TRIPOS>MOLECULE
1w4o_ligand_042
    32    33
SMALL
GAST_HUCK
****
This file was generated by PARSER (from files_GN.cpp)

@<TRIPOS>ATOM
      1 N1         36.0250   -2.0942   12.9499 N.am        1 UA3      -0.1592
      2 C2         37.0642   -1.3696   13.4433 C.2         1 UA3       0.3328
      3 O2         37.8110   -1.7328   14.3454 O.2         1 UA3      -0.3815
      4 N3         37.3252   -0.1508   12.9739 N.am        1 UA3      -0.1865
      5 C4         36.6009    0.3885   11.9979 C.2         1 UA3       0.1822
      6 O4         36.8858    1.5112   11.6083 O.2         1 UA3      -0.4124
      7 C5         35.5394   -0.2949   11.4825 C.2         1 UA3       0.0062
      8 C6         35.2515   -1.5079   11.9841 C.2         1 UA3       0.0591
      9 O5         38.5776   -5.6241   15.3970 O.3         1 UA3      -0.3924
     10 C5         37.9035   -6.2470   14.3064 C.3         1 UA3       0.0734
     11 C4         36.5807   -5.5113   13.9675 C.3         1 UA3       0.1182
     12 O4         36.7311   -4.1036   14.1243 O.3         1 UA3      -0.3363
     13 C3         36.0881   -5.7008   12.5195 C.3         1 UA3       0.1483
     14 O3         35.5374   -7.0385   12.4082 O.3         1 UA3      -0.2675
     15 C2         35.1753   -4.4609   12.3455 C.3         1 UA3       0.1433
     16 O2         35.2366   -3.9751   11.0024 O.3         1 UA3      -0.3833
     17 C1         35.6649   -3.4364   13.4206 C.3         1 UA3       0.2062
     18 O3P        33.2361   -7.4304   11.9369 O.co2       1 UA3      -0.5537
     19 P          34.5283   -7.3966   11.2899 P.3         1 UA3       0.2013
     20 O1P        34.7575   -8.7321   10.7710 O.co2       1 UA3      -0.5537
     21 O2P        34.4589   -6.4733   10.1758 O.co2       1 UA3      -0.5537
     22 H1         38.0628    0.3545   13.3502 H           1 UA3       0.2259
     23 H2         34.9916    0.1018   10.7534 H           1 UA3       0.0258
     24 H3         34.4498   -1.9717   11.6384 H           1 UA3       0.1178
     25 H4         38.8915   -4.7634   15.0461 H           1 UA3       0.2095
     26 H5         37.6867   -7.2802   14.5900 H           1 UA3       0.0584
     27 H6         38.5794   -6.2563   13.4481 H           1 UA3       0.0584
     28 H7         35.8106   -5.8479   14.6653 H           1 UA3       0.0650
     29 H8         36.9421   -5.6178   11.8280 H           1 UA3       0.0704
     30 H9         34.1406   -4.7462   12.5643 H           1 UA3       0.0680
     31 H10        34.3144   -4.0516   10.6578 H           1 UA3       0.2101
     32 H11        34.8615   -3.3004   14.1561 H           1 UA3       0.0997
@<TRIPOS>BOND
     1     1     2  am
     2     1     8   1
     3    17     1   1
     4     2     3   2
     5     2     4  am
     6     4     5  am
     7     5     6   2
     8     7     5   1
     9     8     7   2
    10    10     9   1
    11    11    10   1
    12    12    11   1
    13    11    13   1
    14    12    17   1
    15    13    14   1
    16    13    15   1
    17    14    19   1
    18    15    16   1
    19    15    17   1
    20    19    18  ar
    21    19    20  ar
    22    19    21  ar
    23     4    22   1
    24     7    23   1
    25     8    24   1
    26     9    25   1
    27    10    26   1
    28    10    27   1
    29    11    28   1
    30    13    29   1
    31    15    30   1
    32    16    31   1
    33    17    32   1
@<TRIPOS>SUBSTRUCTURE
     1  UA3      2

