@<TRIPOS>MOLECULE
1w4o_ligand_019
    32    33
SMALL
GAST_HUCK
****
This file was generated by PARSER (from files_GN.cpp)

@<TRIPOS>ATOM
      1 N1         41.0848   10.4961    8.8212 N.am        1 UA3      -0.1592
      2 C2         39.8279   10.9785    8.9474 C.2         1 UA3       0.3328
      3 O2         38.8623   10.5316    8.3435 O.2         1 UA3      -0.3815
      4 N3         39.5694   11.9743    9.7961 N.am        1 UA3      -0.1865
      5 C4         40.5232   12.5102   10.5536 C.2         1 UA3       0.1822
      6 O4         40.2272   13.4157   11.3208 O.2         1 UA3      -0.4124
      7 C5         41.7997   12.0443   10.4753 C.2         1 UA3       0.0062
      8 C6         42.0615   11.0459    9.6089 C.2         1 UA3       0.0591
      9 O5         38.1493    7.7681    6.4385 O.3         1 UA3      -0.3924
     10 C5         39.3355    7.1918    5.8874 C.3         1 UA3       0.0734
     11 C4         40.6137    7.7114    6.5947 C.3         1 UA3       0.1182
     12 O4         40.4574    9.0872    6.9464 O.3         1 UA3      -0.3363
     13 C3         40.9690    6.9826    7.9065 C.3         1 UA3       0.1483
     14 O3         41.7349    5.7995    7.5883 O.3         1 UA3      -0.2675
     15 C2         41.7562    8.0663    8.6770 C.3         1 UA3       0.1433
     16 O2         41.3699    8.0659   10.0531 O.3         1 UA3      -0.3833
     17 C1         41.4457    9.3973    7.9358 C.3         1 UA3       0.2062
     18 O3P        41.0366    3.9284    9.1009 O.co2       1 UA3      -0.5537
     19 P          42.1046    4.8380    8.7476 P.3         1 UA3       0.2013
     20 O1P        42.5572    5.5337    9.9291 O.co2       1 UA3      -0.5537
     21 O2P        43.2146    4.0441    8.2923 O.co2       1 UA3      -0.5537
     22 H1         38.6580   12.3032    9.8762 H           1 UA3       0.2259
     23 H2         42.5188   12.4272   11.0500 H           1 UA3       0.0258
     24 H3         42.9948   10.7062    9.5695 H           1 UA3       0.1178
     25 H4         37.9110    7.2103    7.2132 H           1 UA3       0.2095
     26 H5         39.3747    7.4734    4.8344 H           1 UA3       0.0584
     27 H6         39.2785    6.1020    5.9499 H           1 UA3       0.0584
     28 H7         41.4513    7.6272    5.8898 H           1 UA3       0.0650
     29 H8         40.0387    6.7348    8.4351 H           1 UA3       0.0704
     30 H9         42.8322    7.8579    8.6196 H           1 UA3       0.0680
     31 H10        42.2111    7.9347   10.5598 H           1 UA3       0.2101
     32 H11        42.3320    9.6901    7.3689 H           1 UA3       0.0997
@<TRIPOS>BOND
     1     1     2  am
     2     1     8   1
     3    17     1   1
     4     2     3   2
     5     2     4  am
     6     4     5  am
     7     5     6   2
     8     7     5   1
     9     8     7   2
    10    10     9   1
    11    11    10   1
    12    12    11   1
    13    11    13   1
    14    12    17   1
    15    13    14   1
    16    13    15   1
    17    14    19   1
    18    15    16   1
    19    15    17   1
    20    19    18  ar
    21    19    20  ar
    22    19    21  ar
    23     4    22   1
    24     7    23   1
    25     8    24   1
    26     9    25   1
    27    10    26   1
    28    10    27   1
    29    11    28   1
    30    13    29   1
    31    15    30   1
    32    16    31   1
    33    17    32   1
@<TRIPOS>SUBSTRUCTURE
     1  UA3      2

