@<TRIPOS>MOLECULE
1w4o_ligand_014
    32    33
SMALL
GAST_HUCK
****
This file was generated by PARSER (from files_GN.cpp)

@<TRIPOS>ATOM
      1 N1         40.3817   10.7008    7.7833 N.am        1 UA3      -0.1592
      2 C2         41.0416   11.8090    7.3723 C.2         1 UA3       0.3328
      3 O2         42.1110   11.7835    6.7783 O.2         1 UA3      -0.3815
      4 N3         40.5375   13.0220    7.6084 N.am        1 UA3      -0.1865
      5 C4         39.3913   13.1896    8.2620 C.2         1 UA3       0.1822
      6 O4         38.9665   14.3227    8.4459 O.2         1 UA3      -0.4124
      7 C5         38.7218   12.1091    8.7433 C.2         1 UA3       0.0062
      8 C6         39.2377   10.8850    8.5164 C.2         1 UA3       0.0591
      9 O5         42.5011    7.8422    3.6552 O.3         1 UA3      -0.3924
     10 C5         41.4454    7.3640    4.5014 C.3         1 UA3       0.0734
     11 C4         41.6454    7.8069    5.9728 C.3         1 UA3       0.1182
     12 O4         41.2617    9.1830    6.1331 O.3         1 UA3      -0.3363
     13 C3         40.8199    6.9958    7.0109 C.3         1 UA3       0.1483
     14 O3         41.7226    6.2485    7.8628 O.3         1 UA3      -0.2675
     15 C2         40.1053    8.1045    7.8082 C.3         1 UA3       0.1433
     16 O2         38.7637    8.2403    7.3302 O.3         1 UA3      -0.3833
     17 C1         40.9401    9.3743    7.5222 C.3         1 UA3       0.2062
     18 O3P        41.2532    4.1417    6.5118 O.co2       1 UA3      -0.5537
     19 P          41.7526    4.6988    7.7471 P.3         1 UA3       0.2013
     20 O1P        40.9789    4.1696    8.8481 O.co2       1 UA3      -0.5537
     21 O2P        43.0968    4.1909    7.9094 O.co2       1 UA3      -0.5537
     22 H1         41.0203   13.8101    7.2971 H           1 UA3       0.2259
     23 H2         37.8872   12.2168    9.2771 H           1 UA3       0.0258
     24 H3         38.7665   10.1154    8.9271 H           1 UA3       0.1178
     25 H4         42.5730    8.8008    3.8526 H           1 UA3       0.2095
     26 H5         40.4871    7.7380    4.1171 H           1 UA3       0.0584
     27 H6         41.4387    6.2686    4.4334 H           1 UA3       0.0584
     28 H7         42.7154    7.7253    6.1923 H           1 UA3       0.0650
     29 H8         40.0610    6.3712    6.5250 H           1 UA3       0.0704
     30 H9         40.0809    7.8802    8.8773 H           1 UA3       0.0680
     31 H10        38.2764    7.4657    7.6945 H           1 UA3       0.2101
     32 H11        41.8665    9.3161    8.1117 H           1 UA3       0.0997
@<TRIPOS>BOND
     1     1     2  am
     2     1     8   1
     3    17     1   1
     4     2     3   2
     5     2     4  am
     6     4     5  am
     7     5     6   2
     8     7     5   1
     9     8     7   2
    10    10     9   1
    11    11    10   1
    12    12    11   1
    13    11    13   1
    14    12    17   1
    15    13    14   1
    16    13    15   1
    17    14    19   1
    18    15    16   1
    19    15    17   1
    20    19    18  ar
    21    19    20  ar
    22    19    21  ar
    23     4    22   1
    24     7    23   1
    25     8    24   1
    26     9    25   1
    27    10    26   1
    28    10    27   1
    29    11    28   1
    30    13    29   1
    31    15    30   1
    32    16    31   1
    33    17    32   1
@<TRIPOS>SUBSTRUCTURE
     1  UA3      2

