@<TRIPOS>MOLECULE
1w4o_ligand_036
    32    33
SMALL
GAST_HUCK
****
This file was generated by PARSER (from files_GN.cpp)

@<TRIPOS>ATOM
      1 N1         41.7742    9.0549    6.4204 N.am        1 UA3      -0.1592
      2 C2         41.7726   10.3848    6.1759 C.2         1 UA3       0.3328
      3 O2         42.5580   10.9479    5.4255 O.2         1 UA3      -0.3815
      4 N3         40.8548   11.1749    6.7349 N.am        1 UA3      -0.1865
      5 C4         39.9510   10.6968    7.5784 C.2         1 UA3       0.1822
      6 O4         39.1155   11.4534    8.0501 O.2         1 UA3      -0.4124
      7 C5         39.9415    9.3751    7.9024 C.2         1 UA3       0.0062
      8 C6         40.8511    8.5688    7.3167 C.2         1 UA3       0.0591
      9 O5         43.1350    3.9244    6.3310 O.3         1 UA3      -0.3924
     10 C5         42.8659    4.5547    5.0760 C.3         1 UA3       0.0734
     11 C4         43.2682    6.0531    5.0236 C.3         1 UA3       0.1182
     12 O4         42.1537    6.8671    5.4353 O.3         1 UA3      -0.3363
     13 C3         44.4680    6.4727    5.9183 C.3         1 UA3       0.1483
     14 O3         45.6597    6.6081    5.1050 O.3         1 UA3      -0.2675
     15 C2         43.9796    7.8052    6.5516 C.3         1 UA3       0.1433
     16 O2         43.7247    7.6158    7.9479 O.3         1 UA3      -0.3833
     17 C1         42.7101    8.1500    5.7443 C.3         1 UA3       0.2062
     18 O3P        48.0418    6.5400    4.8738 O.co2       1 UA3      -0.5537
     19 P          47.0240    6.8005    5.8522 P.3         1 UA3       0.2013
     20 O1P        47.2107    5.8576    6.9223 O.co2       1 UA3      -0.5537
     21 O2P        47.2237    8.1484    6.3260 O.co2       1 UA3      -0.5537
     22 H1         40.8416   12.1133    6.5214 H           1 UA3       0.2259
     23 H2         39.2728    8.9910    8.5374 H           1 UA3       0.0258
     24 H3         40.8286    7.5940    7.5388 H           1 UA3       0.1178
     25 H4         42.2553    3.6581    6.6846 H           1 UA3       0.2095
     26 H5         43.3998    3.9944    4.2919 H           1 UA3       0.0584
     27 H6         41.7948    4.4691    4.8690 H           1 UA3       0.0584
     28 H7         43.4963    6.2907    3.9816 H           1 UA3       0.0650
     29 H8         44.6313    5.7202    6.6994 H           1 UA3       0.0704
     30 H9         44.6984    8.6175    6.4394 H           1 UA3       0.0680
     31 H10        43.0229    6.9318    7.9829 H           1 UA3       0.2101
     32 H11        43.0247    8.5977    4.7867 H           1 UA3       0.0997
@<TRIPOS>BOND
     1     1     2  am
     2     1     8   1
     3    17     1   1
     4     2     3   2
     5     2     4  am
     6     4     5  am
     7     5     6   2
     8     7     5   1
     9     8     7   2
    10    10     9   1
    11    11    10   1
    12    12    11   1
    13    11    13   1
    14    12    17   1
    15    13    14   1
    16    13    15   1
    17    14    19   1
    18    15    16   1
    19    15    17   1
    20    19    18  ar
    21    19    20  ar
    22    19    21  ar
    23     4    22   1
    24     7    23   1
    25     8    24   1
    26     9    25   1
    27    10    26   1
    28    10    27   1
    29    11    28   1
    30    13    29   1
    31    15    30   1
    32    16    31   1
    33    17    32   1
@<TRIPOS>SUBSTRUCTURE
     1  UA3      2

