@<TRIPOS>MOLECULE
1w4o_ligand_021
    32    33
SMALL
GAST_HUCK
****
This file was generated by PARSER (from files_GN.cpp)

@<TRIPOS>ATOM
      1 N1         41.1927    4.8816    8.8815 N.am        1 UA3      -0.1592
      2 C2         42.0361    4.5068    7.8923 C.2         1 UA3       0.3328
      3 O2         43.0828    3.9051    8.0978 O.2         1 UA3      -0.3815
      4 N3         41.7427    4.7752    6.6230 N.am        1 UA3      -0.1865
      5 C4         40.6289    5.4135    6.2835 C.2         1 UA3       0.1822
      6 O4         40.4188    5.6514    5.1044 O.2         1 UA3      -0.4124
      7 C5         39.7357    5.7856    7.2390 C.2         1 UA3       0.0062
      8 C6         40.0243    5.4982    8.5231 C.2         1 UA3       0.0591
      9 O5         39.0939    3.0216   14.0936 O.3         1 UA3      -0.3924
     10 C5         39.0238    3.2654   12.6909 C.3         1 UA3       0.0734
     11 C4         40.3150    3.9427   12.1732 C.3         1 UA3       0.1182
     12 O4         40.4365    3.7094   10.7729 O.3         1 UA3      -0.3363
     13 C3         40.3785    5.4767   12.2880 C.3         1 UA3       0.1483
     14 O3         40.7878    5.9221   13.6009 O.3         1 UA3      -0.2675
     15 C2         41.4822    5.8068   11.2626 C.3         1 UA3       0.1433
     16 O2         41.2748    7.1007   10.6887 O.3         1 UA3      -0.3833
     17 C1         41.4501    4.5927   10.2865 C.3         1 UA3       0.2062
     18 O3P        38.6417    5.6524   14.8276 O.co2       1 UA3      -0.5537
     19 P          39.7030    6.5703   14.5244 P.3         1 UA3       0.2013
     20 O1P        39.1597    7.7578   13.9149 O.co2       1 UA3      -0.5537
     21 O2P        40.3467    6.9336   15.7584 O.co2       1 UA3      -0.5537
     22 H1         42.3615    4.4941    5.9231 H           1 UA3       0.2259
     23 H2         38.8959    6.2587    7.0010 H           1 UA3       0.0258
     24 H3         39.3622    5.7660    9.2209 H           1 UA3       0.1178
     25 H4         38.1827    2.7553   14.3516 H           1 UA3       0.2095
     26 H5         38.1442    3.8803   12.4729 H           1 UA3       0.0584
     27 H6         38.8944    2.2968   12.1951 H           1 UA3       0.0584
     28 H7         41.1644    3.4850   12.6898 H           1 UA3       0.0650
     29 H8         39.4349    5.9118   11.9232 H           1 UA3       0.0704
     30 H9         42.4594    5.8384   11.7657 H           1 UA3       0.0680
     31 H10        42.0145    7.2132   10.0385 H           1 UA3       0.2101
     32 H11        42.3927    4.0567   10.4131 H           1 UA3       0.0997
@<TRIPOS>BOND
     1     1     2  am
     2     1     8   1
     3    17     1   1
     4     2     3   2
     5     2     4  am
     6     4     5  am
     7     5     6   2
     8     7     5   1
     9     8     7   2
    10    10     9   1
    11    11    10   1
    12    12    11   1
    13    11    13   1
    14    12    17   1
    15    13    14   1
    16    13    15   1
    17    14    19   1
    18    15    16   1
    19    15    17   1
    20    19    18  ar
    21    19    20  ar
    22    19    21  ar
    23     4    22   1
    24     7    23   1
    25     8    24   1
    26     9    25   1
    27    10    26   1
    28    10    27   1
    29    11    28   1
    30    13    29   1
    31    15    30   1
    32    16    31   1
    33    17    32   1
@<TRIPOS>SUBSTRUCTURE
     1  UA3      2

