@<TRIPOS>MOLECULE
1w4o_ligand_002
    32    33
SMALL
GAST_HUCK
****
This file was generated by PARSER (from files_GN.cpp)

@<TRIPOS>ATOM
      1 N1         41.4778   10.9687    3.2680 N.am        1 UA3      -0.1592
      2 C2         41.6211   12.2954    3.4729 C.2         1 UA3       0.3328
      3 O2         42.1067   12.7697    4.4912 O.2         1 UA3      -0.3815
      4 N3         41.2005   13.1646    2.5526 N.am        1 UA3      -0.1865
      5 C4         40.6395   12.7588    1.4175 C.2         1 UA3       0.1822
      6 O4         40.2776   13.5990    0.6055 O.2         1 UA3      -0.4124
      7 C5         40.4517   11.4313    1.1861 C.2         1 UA3       0.0062
      8 C6         40.8727   10.5565    2.1124 C.2         1 UA3       0.0591
      9 O5         42.9263    6.2287    2.9969 O.3         1 UA3      -0.3924
     10 C5         42.2250    6.3101    4.2293 C.3         1 UA3       0.0734
     11 C4         42.2124    7.7667    4.7699 C.3         1 UA3       0.1182
     12 O4         42.2716    8.7209    3.7050 O.3         1 UA3      -0.3363
     13 C3         40.9360    8.1453    5.5550 C.3         1 UA3       0.1483
     14 O3         41.0896    7.8085    6.9535 O.3         1 UA3      -0.2675
     15 C2         40.8096    9.6703    5.3233 C.3         1 UA3       0.1433
     16 O2         39.4865   10.0203    4.9124 O.3         1 UA3      -0.3833
     17 C1         41.8927    9.9910    4.2644 C.3         1 UA3       0.2062
     18 O3P        39.4480    6.0686    7.4721 O.co2       1 UA3      -0.5537
     19 P          39.7940    7.4408    7.7468 P.3         1 UA3       0.2013
     20 O1P        38.6784    8.2905    7.4413 O.co2       1 UA3      -0.5537
     21 O2P        40.0671    7.5499    9.1531 O.co2       1 UA3      -0.5537
     22 H1         41.3223   14.1145    2.7129 H           1 UA3       0.2259
     23 H2         40.0061   11.1182    0.3530 H           1 UA3       0.0258
     24 H3         40.7164    9.5893    1.9347 H           1 UA3       0.1178
     25 H4         42.7634    5.3250    2.6555 H           1 UA3       0.2095
     26 H5         42.7168    5.6550    4.9472 H           1 UA3       0.0584
     27 H6         41.2166    5.9363    4.0651 H           1 UA3       0.0584
     28 H7         43.1016    7.9125    5.3973 H           1 UA3       0.0650
     29 H8         40.0802    7.6436    5.0844 H           1 UA3       0.0704
     30 H9         41.0218   10.2234    6.2423 H           1 UA3       0.0680
     31 H10        39.3207    9.5151    4.0853 H           1 UA3       0.2101
     32 H11        42.7903   10.3586    4.7753 H           1 UA3       0.0997
@<TRIPOS>BOND
     1     1     2  am
     2     1     8   1
     3    17     1   1
     4     2     3   2
     5     2     4  am
     6     4     5  am
     7     5     6   2
     8     7     5   1
     9     8     7   2
    10    10     9   1
    11    11    10   1
    12    12    11   1
    13    11    13   1
    14    12    17   1
    15    13    14   1
    16    13    15   1
    17    14    19   1
    18    15    16   1
    19    15    17   1
    20    19    18  ar
    21    19    20  ar
    22    19    21  ar
    23     4    22   1
    24     7    23   1
    25     8    24   1
    26     9    25   1
    27    10    26   1
    28    10    27   1
    29    11    28   1
    30    13    29   1
    31    15    30   1
    32    16    31   1
    33    17    32   1
@<TRIPOS>SUBSTRUCTURE
     1  UA3      2

