@<TRIPOS>MOLECULE
1w4o_ligand_022
    32    33
SMALL
GAST_HUCK
****
This file was generated by PARSER (from files_GN.cpp)

@<TRIPOS>ATOM
      1 N1         42.1788    7.5340    7.6834 N.am        1 UA3      -0.1592
      2 C2         41.1123    7.7961    8.4749 C.2         1 UA3       0.3328
      3 O2         41.1514    7.7800    9.7000 O.2         1 UA3      -0.3815
      4 N3         39.9401    8.1247    7.9370 N.am        1 UA3      -0.1865
      5 C4         39.7729    8.1976    6.6163 C.2         1 UA3       0.1822
      6 O4         38.6804    8.5171    6.1718 O.2         1 UA3      -0.4124
      7 C5         40.8120    7.9272    5.7834 C.2         1 UA3       0.0062
      8 C6         42.0076    7.6123    6.3265 C.2         1 UA3       0.0591
      9 O5         47.2112    9.0889    6.2431 O.3         1 UA3      -0.3924
     10 C5         46.4863    9.3330    7.4581 C.3         1 UA3       0.0734
     11 C4         45.6701    8.0991    7.9377 C.3         1 UA3       0.1182
     12 O4         44.2967    8.4753    8.0782 O.3         1 UA3      -0.3363
     13 C3         45.6039    6.8584    7.0065 C.3         1 UA3       0.1483
     14 O3         46.7205    5.9311    7.0421 O.3         1 UA3      -0.2675
     15 C2         44.3539    6.1382    7.5628 C.3         1 UA3       0.1433
     16 O2         43.6913    5.3889    6.5433 O.3         1 UA3      -0.3833
     17 C1         43.5120    7.2777    8.2150 C.3         1 UA3       0.2062
     18 O3P        48.8592    7.1896    6.9451 O.co2       1 UA3      -0.5537
     19 P          47.9940    6.2845    6.2267 P.3         1 UA3       0.2013
     20 O1P        47.7146    6.7976    4.9063 O.co2       1 UA3      -0.5537
     21 O2P        48.7516    5.0690    6.0473 O.co2       1 UA3      -0.5537
     22 H1         39.1919    8.3258    8.5180 H           1 UA3       0.2259
     23 H2         40.7026    7.9784    4.7956 H           1 UA3       0.0258
     24 H3         42.7736    7.4539    5.7079 H           1 UA3       0.1178
     25 H4         47.0087    9.8687    5.6694 H           1 UA3       0.2095
     26 H5         45.8096   10.1916    7.3272 H           1 UA3       0.0584
     27 H6         47.2160    9.6074    8.2247 H           1 UA3       0.0584
     28 H7         46.0503    7.7930    8.9221 H           1 UA3       0.0650
     29 H8         45.3674    7.1695    5.9814 H           1 UA3       0.0704
     30 H9         44.6627    5.4258    8.3417 H           1 UA3       0.0680
     31 H10        42.8916    5.0198    6.9737 H           1 UA3       0.2101
     32 H11        43.4779    7.0705    9.2923 H           1 UA3       0.0997
@<TRIPOS>BOND
     1     1     2  am
     2     1     8   1
     3    17     1   1
     4     2     3   2
     5     2     4  am
     6     4     5  am
     7     5     6   2
     8     7     5   1
     9     8     7   2
    10    10     9   1
    11    11    10   1
    12    12    11   1
    13    11    13   1
    14    12    17   1
    15    13    14   1
    16    13    15   1
    17    14    19   1
    18    15    16   1
    19    15    17   1
    20    19    18  ar
    21    19    20  ar
    22    19    21  ar
    23     4    22   1
    24     7    23   1
    25     8    24   1
    26     9    25   1
    27    10    26   1
    28    10    27   1
    29    11    28   1
    30    13    29   1
    31    15    30   1
    32    16    31   1
    33    17    32   1
@<TRIPOS>SUBSTRUCTURE
     1  UA3      2

