@<TRIPOS>MOLECULE
1w4o_ligand_035
    32    33
SMALL
GAST_HUCK
****
This file was generated by PARSER (from files_GN.cpp)

@<TRIPOS>ATOM
      1 N1         41.5110    5.6030   10.7823 N.am        1 UA3      -0.1592
      2 C2         41.8557    5.1086   11.9950 C.2         1 UA3       0.3328
      3 O2         43.0151    5.0327   12.3874 O.2         1 UA3      -0.3815
      4 N3         40.9242    4.6560   12.8335 N.am        1 UA3      -0.1865
      5 C4         39.6328    4.6639   12.5097 C.2         1 UA3       0.1822
      6 O4         38.8210    4.2357   13.3149 O.2         1 UA3      -0.4124
      7 C5         39.2362    5.1292   11.2900 C.2         1 UA3       0.0062
      8 C6         40.1822    5.5769   10.4388 C.2         1 UA3       0.0591
      9 O5         42.1949    8.2279    5.5602 O.3         1 UA3      -0.3924
     10 C5         41.5602    7.8590    6.7845 C.3         1 UA3       0.0734
     11 C4         42.4888    7.0279    7.7054 C.3         1 UA3       0.1182
     12 O4         42.0219    7.1943    9.0570 O.3         1 UA3      -0.3363
     13 C3         42.5038    5.4946    7.4890 C.3         1 UA3       0.1483
     14 O3         43.3767    4.9761    6.4583 O.3         1 UA3      -0.2675
     15 C2         43.0311    5.0284    8.8545 C.3         1 UA3       0.1433
     16 O2         42.6615    3.6801    9.1488 O.3         1 UA3      -0.3833
     17 C1         42.5108    6.0941    9.8491 C.3         1 UA3       0.2062
     18 O3P        43.8525    6.0049    4.2613 O.co2       1 UA3      -0.5537
     19 P          42.9618    5.1168    4.9580 P.3         1 UA3       0.2013
     20 O1P        41.5966    5.4776    4.6800 O.co2       1 UA3      -0.5537
     21 O2P        43.1948    3.8308    4.3603 O.co2       1 UA3      -0.5537
     22 H1         41.1935    4.3042   13.6962 H           1 UA3       0.2259
     23 H2         38.2782    5.1263   11.0326 H           1 UA3       0.0258
     24 H3         39.8868    5.8897    9.5428 H           1 UA3       0.1178
     25 H4         42.9469    8.7861    5.8100 H           1 UA3       0.2095
     26 H5         40.6557    7.2937    6.5542 H           1 UA3       0.0584
     27 H6         41.2681    8.7838    7.2870 H           1 UA3       0.0584
     28 H7         43.5069    7.4329    7.6339 H           1 UA3       0.0650
     29 H8         41.4742    5.1269    7.3808 H           1 UA3       0.0704
     30 H9         44.1260    5.0581    8.8621 H           1 UA3       0.0680
     31 H10        41.6789    3.6642    9.1711 H           1 UA3       0.2101
     32 H11        43.3629    6.5152   10.4004 H           1 UA3       0.0997
@<TRIPOS>BOND
     1     1     2  am
     2     1     8   1
     3    17     1   1
     4     2     3   2
     5     2     4  am
     6     4     5  am
     7     5     6   2
     8     7     5   1
     9     8     7   2
    10    10     9   1
    11    11    10   1
    12    12    11   1
    13    11    13   1
    14    12    17   1
    15    13    14   1
    16    13    15   1
    17    14    19   1
    18    15    16   1
    19    15    17   1
    20    19    18  ar
    21    19    20  ar
    22    19    21  ar
    23     4    22   1
    24     7    23   1
    25     8    24   1
    26     9    25   1
    27    10    26   1
    28    10    27   1
    29    11    28   1
    30    13    29   1
    31    15    30   1
    32    16    31   1
    33    17    32   1
@<TRIPOS>SUBSTRUCTURE
     1  UA3      2

