@<TRIPOS>MOLECULE
1w4o_ligand_020
    32    33
SMALL
GAST_HUCK
****
This file was generated by PARSER (from files_GN.cpp)

@<TRIPOS>ATOM
      1 N1         41.7540    9.9128    4.3625 N.am        1 UA3      -0.1592
      2 C2         41.2142    9.6239    3.1531 C.2         1 UA3       0.3328
      3 O2         41.5318    8.6609    2.4611 O.2         1 UA3      -0.3815
      4 N3         40.2944   10.4308    2.6265 N.am        1 UA3      -0.1865
      5 C4         39.8666   11.5247    3.2528 C.2         1 UA3       0.1822
      6 O4         39.0245   12.2281    2.7132 O.2         1 UA3      -0.4124
      7 C5         40.3849   11.8560    4.4651 C.2         1 UA3       0.0062
      8 C6         41.3168   11.0428    5.0083 C.2         1 UA3       0.0591
      9 O5         42.2910    5.9192    3.0007 O.3         1 UA3      -0.3924
     10 C5         42.8477    5.5411    4.2609 C.3         1 UA3       0.0734
     11 C4         43.1539    6.7771    5.1413 C.3         1 UA3       0.1182
     12 O4         43.1688    7.9301    4.2920 O.3         1 UA3      -0.3363
     13 C3         42.1231    7.0740    6.2594 C.3         1 UA3       0.1483
     14 O3         42.3517    6.4372    7.5378 O.3         1 UA3      -0.2675
     15 C2         42.3276    8.5864    6.4367 C.3         1 UA3       0.1433
     16 O2         41.1491    9.2006    6.9696 O.3         1 UA3      -0.3833
     17 C1         42.7551    9.0905    5.0325 C.3         1 UA3       0.2062
     18 O3P        41.0023    4.4636    6.7806 O.co2       1 UA3      -0.5537
     19 P          41.9649    4.9450    7.7366 P.3         1 UA3       0.2013
     20 O1P        41.3457    4.8468    9.0349 O.co2       1 UA3      -0.5537
     21 O2P        43.1184    4.0791    7.7894 O.co2       1 UA3      -0.5537
     22 H1         39.9262   10.2193    1.7554 H           1 UA3       0.2259
     23 H2         40.0905   12.6768    4.9506 H           1 UA3       0.0258
     24 H3         41.7017   11.3027    5.8916 H           1 UA3       0.1178
     25 H4         42.6437    5.2668    2.3616 H           1 UA3       0.2095
     26 H5         43.7779    4.9986    4.0817 H           1 UA3       0.0584
     27 H6         42.1512    4.8581    4.7608 H           1 UA3       0.0584
     28 H7         44.1564    6.6532    5.5810 H           1 UA3       0.0650
     29 H8         41.1075    6.9024    5.8969 H           1 UA3       0.0704
     30 H9         43.1493    8.7647    7.1455 H           1 UA3       0.0680
     31 H10        41.0925    8.8702    7.8988 H           1 UA3       0.2101
     32 H11        43.6652    9.6873    5.1315 H           1 UA3       0.0997
@<TRIPOS>BOND
     1     1     2  am
     2     1     8   1
     3    17     1   1
     4     2     3   2
     5     2     4  am
     6     4     5  am
     7     5     6   2
     8     7     5   1
     9     8     7   2
    10    10     9   1
    11    11    10   1
    12    12    11   1
    13    11    13   1
    14    12    17   1
    15    13    14   1
    16    13    15   1
    17    14    19   1
    18    15    16   1
    19    15    17   1
    20    19    18  ar
    21    19    20  ar
    22    19    21  ar
    23     4    22   1
    24     7    23   1
    25     8    24   1
    26     9    25   1
    27    10    26   1
    28    10    27   1
    29    11    28   1
    30    13    29   1
    31    15    30   1
    32    16    31   1
    33    17    32   1
@<TRIPOS>SUBSTRUCTURE
     1  UA3      2

