@<TRIPOS>MOLECULE
1w4o_ligand_047
    32    33
SMALL
GAST_HUCK
****
This file was generated by PARSER (from files_GN.cpp)

@<TRIPOS>ATOM
      1 N1         42.5571    7.2802    5.0080 N.am        1 UA3      -0.1592
      2 C2         42.8855    6.9653    6.2857 C.2         1 UA3       0.3328
      3 O2         43.0374    7.7877    7.1777 O.2         1 UA3      -0.3815
      4 N3         43.0776    5.6925    6.6433 N.am        1 UA3      -0.1865
      5 C4         42.9871    4.7020    5.7642 C.2         1 UA3       0.1822
      6 O4         43.1824    3.5537    6.1366 O.2         1 UA3      -0.4124
      7 C5         42.7085    4.9677    4.4643 C.2         1 UA3       0.0062
      8 C6         42.5262    6.2505    4.1036 C.2         1 UA3       0.0591
      9 O5         40.5149   11.8727    7.0427 O.3         1 UA3      -0.3924
     10 C5         40.0324   11.2890    5.8384 C.3         1 UA3       0.0734
     11 C4         41.1831   10.6401    5.0320 C.3         1 UA3       0.1182
     12 O4         41.5489    9.3735    5.5875 O.3         1 UA3      -0.3363
     13 C3         40.8046   10.2998    3.5821 C.3         1 UA3       0.1483
     14 O3         41.0447   11.4537    2.7451 O.3         1 UA3      -0.2675
     15 C2         41.7330    9.1056    3.2535 C.3         1 UA3       0.1433
     16 O2         40.9688    8.1306    2.5480 O.3         1 UA3      -0.3833
     17 C1         42.3635    8.6802    4.6209 C.3         1 UA3       0.2062
     18 O3P        41.0225   12.4043    0.5256 O.co2       1 UA3      -0.5537
     19 P          40.2524   11.5665    1.4093 P.3         1 UA3       0.2013
     20 O1P        38.9975   12.2354    1.6432 O.co2       1 UA3      -0.5537
     21 O2P        40.0189   10.3152    0.7342 O.co2       1 UA3      -0.5537
     22 H1         43.2938    5.4893    7.5678 H           1 UA3       0.2259
     23 H2         42.6855    4.2428    3.7856 H           1 UA3       0.0258
     24 H3         42.4190    6.4079    3.1392 H           1 UA3       0.1178
     25 H4         40.9134   11.1370    7.5497 H           1 UA3       0.2095
     26 H5         39.5610   12.0766    5.2474 H           1 UA3       0.0584
     27 H6         39.2777   10.5439    6.0851 H           1 UA3       0.0584
     28 H7         42.0484   11.3132    5.0444 H           1 UA3       0.0650
     29 H8         39.7518    9.9811    3.5742 H           1 UA3       0.0704
     30 H9         42.5278    9.4297    2.5754 H           1 UA3       0.0680
     31 H10        40.3541    7.7508    3.2113 H           1 UA3       0.2101
     32 H11        43.3618    9.1313    4.6709 H           1 UA3       0.0997
@<TRIPOS>BOND
     1     1     2  am
     2     1     8   1
     3    17     1   1
     4     2     3   2
     5     2     4  am
     6     4     5  am
     7     5     6   2
     8     7     5   1
     9     8     7   2
    10    10     9   1
    11    11    10   1
    12    12    11   1
    13    11    13   1
    14    12    17   1
    15    13    14   1
    16    13    15   1
    17    14    19   1
    18    15    16   1
    19    15    17   1
    20    19    18  ar
    21    19    20  ar
    22    19    21  ar
    23     4    22   1
    24     7    23   1
    25     8    24   1
    26     9    25   1
    27    10    26   1
    28    10    27   1
    29    11    28   1
    30    13    29   1
    31    15    30   1
    32    16    31   1
    33    17    32   1
@<TRIPOS>SUBSTRUCTURE
     1  UA3      2

