@<TRIPOS>MOLECULE
1w4o_ligand_004
    32    33
SMALL
GAST_HUCK
****
This file was generated by PARSER (from files_GN.cpp)

@<TRIPOS>ATOM
      1 N1         39.9019   10.2515    6.0896 N.am        1 UA3      -0.1592
      2 C2         39.7055   11.3543    6.8456 C.2         1 UA3       0.3328
      3 O2         40.2596   11.5417    7.9218 O.2         1 UA3      -0.3815
      4 N3         38.8531   12.2974    6.4463 N.am        1 UA3      -0.1865
      5 C4         38.1814   12.1883    5.3022 C.2         1 UA3       0.1822
      6 O4         37.4081   13.0791    4.9872 O.2         1 UA3      -0.4124
      7 C5         38.3358   11.0872    4.5172 C.2         1 UA3       0.0062
      8 C6         39.1837   10.1275    4.9326 C.2         1 UA3       0.0591
      9 O5         41.7837    7.3532    3.0484 O.3         1 UA3      -0.3924
     10 C5         42.3048    6.6820    4.1954 C.3         1 UA3       0.0734
     11 C4         41.8917    7.3520    5.5387 C.3         1 UA3       0.1182
     12 O4         41.6200    8.7516    5.3706 O.3         1 UA3      -0.3363
     13 C3         40.5957    6.7772    6.1645 C.3         1 UA3       0.1483
     14 O3         40.6082    5.4698    6.7972 O.3         1 UA3      -0.2675
     15 C2         40.0947    7.9285    7.0621 C.3         1 UA3       0.1433
     16 O2         38.6631    8.0152    7.0748 O.3         1 UA3      -0.3833
     17 C1         40.8094    9.1822    6.4822 C.3         1 UA3       0.2062
     18 O3P        42.2091    5.9753    8.6806 O.co2       1 UA3      -0.5537
     19 P          41.7540    4.9841    7.7349 P.3         1 UA3       0.2013
     20 O1P        42.8853    4.4805    6.9936 O.co2       1 UA3      -0.5537
     21 O2P        41.2442    3.8859    8.5273 O.co2       1 UA3      -0.5537
     22 H1         38.7208   13.0809    7.0017 H           1 UA3       0.2259
     23 H2         37.8249   10.9866    3.6667 H           1 UA3       0.0258
     24 H3         39.2712    9.3102    4.3704 H           1 UA3       0.1178
     25 H4         40.8080    7.3979    3.1685 H           1 UA3       0.2095
     26 H5         43.3950    6.6947    4.1085 H           1 UA3       0.0584
     27 H6         41.9821    5.6360    4.1697 H           1 UA3       0.0584
     28 H7         42.7232    7.2544    6.2451 H           1 UA3       0.0650
     29 H8         39.8710    6.6755    5.3506 H           1 UA3       0.0704
     30 H9         40.4207    7.7701    8.0964 H           1 UA3       0.0680
     31 H10        38.3542    7.1799    7.4922 H           1 UA3       0.2101
     32 H11        41.5261    9.5355    7.2377 H           1 UA3       0.0997
@<TRIPOS>BOND
     1     1     2  am
     2     1     8   1
     3    17     1   1
     4     2     3   2
     5     2     4  am
     6     4     5  am
     7     5     6   2
     8     7     5   1
     9     8     7   2
    10    10     9   1
    11    11    10   1
    12    12    11   1
    13    11    13   1
    14    12    17   1
    15    13    14   1
    16    13    15   1
    17    14    19   1
    18    15    16   1
    19    15    17   1
    20    19    18  ar
    21    19    20  ar
    22    19    21  ar
    23     4    22   1
    24     7    23   1
    25     8    24   1
    26     9    25   1
    27    10    26   1
    28    10    27   1
    29    11    28   1
    30    13    29   1
    31    15    30   1
    32    16    31   1
    33    17    32   1
@<TRIPOS>SUBSTRUCTURE
     1  UA3      2

