@<TRIPOS>MOLECULE
1w4o_ligand_015
    32    33
SMALL
GAST_HUCK
****
This file was generated by PARSER (from files_GN.cpp)

@<TRIPOS>ATOM
      1 N1         42.1520    5.6746    5.9569 N.am        1 UA3      -0.1592
      2 C2         42.5231    5.1637    4.7614 C.2         1 UA3       0.3328
      3 O2         43.0981    4.0916    4.6313 O.2         1 UA3      -0.3815
      4 N3         42.2803    5.8396    3.6373 N.am        1 UA3      -0.1865
      5 C4         41.6778    7.0265    3.6566 C.2         1 UA3       0.1822
      6 O4         41.4812    7.6199    2.6066 O.2         1 UA3      -0.4124
      7 C5         41.2726    7.5670    4.8361 C.2         1 UA3       0.0062
      8 C6         41.5079    6.8811    5.9688 C.2         1 UA3       0.0591
      9 O5         39.7412    6.6278   10.0287 O.3         1 UA3      -0.3924
     10 C5         40.2415    5.3031   10.2044 C.3         1 UA3       0.0734
     11 C4         41.5040    5.0185    9.3529 C.3         1 UA3       0.1182
     12 O4         41.1753    4.8693    7.9637 O.3         1 UA3      -0.3363
     13 C3         42.5873    6.1235    9.3673 C.3         1 UA3       0.1483
     14 O3         43.4059    6.1677   10.5605 O.3         1 UA3      -0.2675
     15 C2         43.4292    5.7002    8.1517 C.3         1 UA3       0.1433
     16 O2         44.1163    6.8118    7.5780 O.3         1 UA3      -0.3833
     17 C1         42.4024    4.9924    7.2186 C.3         1 UA3       0.2062
     18 O3P        42.8256    5.9859   12.9240 O.co2       1 UA3      -0.5537
     19 P          42.8556    6.9098   11.8194 P.3         1 UA3       0.2013
     20 O1P        41.5592    7.5171   11.6665 O.co2       1 UA3      -0.5537
     21 O2P        43.7987    7.9321   12.1902 O.co2       1 UA3      -0.5537
     22 H1         42.5553    5.4544    2.7871 H           1 UA3       0.2259
     23 H2         40.8097    8.4468    4.8652 H           1 UA3       0.0258
     24 H3         41.1952    7.2780    6.8248 H           1 UA3       0.1178
     25 H4         39.0261    6.5548    9.3675 H           1 UA3       0.2095
     26 H5         39.4547    4.5946    9.9448 H           1 UA3       0.0584
     27 H6         40.4759    5.1607   11.2630 H           1 UA3       0.0584
     28 H7         41.9322    4.0740    9.7139 H           1 UA3       0.0650
     29 H8         42.1359    7.0979    9.1379 H           1 UA3       0.0704
     30 H9         44.1849    4.9794    8.4750 H           1 UA3       0.0680
     31 H10        44.6227    6.4451    6.8223 H           1 UA3       0.2101
     32 H11        42.7497    3.9675    7.0525 H           1 UA3       0.0997
@<TRIPOS>BOND
     1     1     2  am
     2     1     8   1
     3    17     1   1
     4     2     3   2
     5     2     4  am
     6     4     5  am
     7     5     6   2
     8     7     5   1
     9     8     7   2
    10    10     9   1
    11    11    10   1
    12    12    11   1
    13    11    13   1
    14    12    17   1
    15    13    14   1
    16    13    15   1
    17    14    19   1
    18    15    16   1
    19    15    17   1
    20    19    18  ar
    21    19    20  ar
    22    19    21  ar
    23     4    22   1
    24     7    23   1
    25     8    24   1
    26     9    25   1
    27    10    26   1
    28    10    27   1
    29    11    28   1
    30    13    29   1
    31    15    30   1
    32    16    31   1
    33    17    32   1
@<TRIPOS>SUBSTRUCTURE
     1  UA3      2

