@<TRIPOS>MOLECULE
1w4o_ligand_005
    32    33
SMALL
GAST_HUCK
****
This file was generated by PARSER (from files_GN.cpp)

@<TRIPOS>ATOM
      1 N1         42.2559    6.6308    7.4807 N.am        1 UA3      -0.1592
      2 C2         42.9848    5.7140    6.8051 C.2         1 UA3       0.3328
      3 O2         43.3485    4.6442    7.2756 O.2         1 UA3      -0.3815
      4 N3         43.2860    5.9171    5.5221 N.am        1 UA3      -0.1865
      5 C4         42.8943    7.0094    4.8739 C.2         1 UA3       0.1822
      6 O4         43.1660    7.1170    3.6869 O.2         1 UA3      -0.4124
      7 C5         42.1743    7.9659    5.5209 C.2         1 UA3       0.0062
      8 C6         41.8750    7.7666    6.8175 C.2         1 UA3       0.0591
      9 O5         42.3921    2.8880    9.3613 O.3         1 UA3      -0.3924
     10 C5         41.9798    3.3770   10.6407 C.3         1 UA3       0.0734
     11 C4         41.7452    4.9191   10.6362 C.3         1 UA3       0.1182
     12 O4         42.5844    5.5282    9.6433 O.3         1 UA3      -0.3363
     13 C3         40.2725    5.3502   10.3565 C.3         1 UA3       0.1483
     14 O3         39.8660    6.3919   11.2800 O.3         1 UA3      -0.2675
     15 C2         40.3593    5.9367    8.9407 C.3         1 UA3       0.1433
     16 O2         40.1021    4.9084    7.9794 O.3         1 UA3      -0.3833
     17 C1         41.8126    6.4529    8.8568 C.3         1 UA3       0.2062
     18 O3P        37.7641    5.7032   12.3593 O.co2       1 UA3      -0.5537
     19 P          39.1653    5.9472   12.5964 P.3         1 UA3       0.2013
     20 O1P        39.2460    7.0533   13.5175 O.co2       1 UA3      -0.5537
     21 O2P        39.7648    4.8028   13.2371 O.co2       1 UA3      -0.5537
     22 H1         43.7990    5.2455    5.0427 H           1 UA3       0.2259
     23 H2         41.8902    8.7971    5.0533 H           1 UA3       0.0258
     24 H3         41.3483    8.4703    7.2836 H           1 UA3       0.1178
     25 H4         41.5689    2.9119    8.8115 H           1 UA3       0.2095
     26 H5         41.0712    2.8448   10.9583 H           1 UA3       0.0584
     27 H6         42.7818    3.1272   11.3489 H           1 UA3       0.0584
     28 H7         42.0639    5.2936   11.6121 H           1 UA3       0.0650
     29 H8         39.5669    4.5024   10.3566 H           1 UA3       0.0704
     30 H9         39.6308    6.7383    8.7987 H           1 UA3       0.0680
     31 H10        39.9994    5.3796    7.1218 H           1 UA3       0.2101
     32 H11        41.8768    7.4190    9.3793 H           1 UA3       0.0997
@<TRIPOS>BOND
     1     1     2  am
     2     1     8   1
     3    17     1   1
     4     2     3   2
     5     2     4  am
     6     4     5  am
     7     5     6   2
     8     7     5   1
     9     8     7   2
    10    10     9   1
    11    11    10   1
    12    12    11   1
    13    11    13   1
    14    12    17   1
    15    13    14   1
    16    13    15   1
    17    14    19   1
    18    15    16   1
    19    15    17   1
    20    19    18  ar
    21    19    20  ar
    22    19    21  ar
    23     4    22   1
    24     7    23   1
    25     8    24   1
    26     9    25   1
    27    10    26   1
    28    10    27   1
    29    11    28   1
    30    13    29   1
    31    15    30   1
    32    16    31   1
    33    17    32   1
@<TRIPOS>SUBSTRUCTURE
     1  UA3      2

