@<TRIPOS>MOLECULE
1w4o_ligand_033
    32    33
SMALL
GAST_HUCK
****
This file was generated by PARSER (from files_GN.cpp)

@<TRIPOS>ATOM
      1 N1         41.9837    6.7622    6.6772 N.am        1 UA3      -0.1592
      2 C2         40.8544    7.0465    5.9893 C.2         1 UA3       0.3328
      3 O2         39.7811    7.2638    6.5259 O.2         1 UA3      -0.3815
      4 N3         40.8794    7.1354    4.6530 N.am        1 UA3      -0.1865
      5 C4         42.0068    6.9806    3.9631 C.2         1 UA3       0.1822
      6 O4         41.9926    7.1248    2.7512 O.2         1 UA3      -0.4124
      7 C5         43.1684    6.7049    4.6089 C.2         1 UA3       0.0062
      8 C6         43.1396    6.6002    5.9500 C.2         1 UA3       0.0591
      9 O5         44.3673    4.9155   11.8651 O.3         1 UA3      -0.3924
     10 C5         43.9593    4.8267   10.5015 C.3         1 UA3       0.0734
     11 C4         43.1694    6.0883   10.0520 C.3         1 UA3       0.1182
     12 O4         43.2470    6.1994    8.6343 O.3         1 UA3      -0.3363
     13 C3         41.6525    6.0790   10.4219 C.3         1 UA3       0.1483
     14 O3         41.2392    7.2197   11.2140 O.3         1 UA3      -0.2675
     15 C2         40.9837    6.1471    9.0234 C.3         1 UA3       0.1433
     16 O2         40.6745    4.8446    8.5343 O.3         1 UA3      -0.3833
     17 C1         42.0569    6.8311    8.1390 C.3         1 UA3       0.2062
     18 O3P        43.1416    7.5483   12.8289 O.co2       1 UA3      -0.5537
     19 P          41.7241    7.3310   12.6966 P.3         1 UA3       0.2013
     20 O1P        41.3382    6.2074   13.5118 O.co2       1 UA3      -0.5537
     21 O2P        41.1146    8.5096   13.2533 O.co2       1 UA3      -0.5537
     22 H1         40.0691    7.3526    4.1671 H           1 UA3       0.2259
     23 H2         44.0284    6.6124    4.1154 H           1 UA3       0.0258
     24 H3         44.0138    6.4403    6.3953 H           1 UA3       0.1178
     25 H4         45.0128    5.6544   11.8893 H           1 UA3       0.2095
     26 H5         43.3503    3.9308   10.3751 H           1 UA3       0.0584
     27 H6         44.8572    4.7138    9.8866 H           1 UA3       0.0584
     28 H7         43.6723    6.9803   10.4362 H           1 UA3       0.0650
     29 H8         41.3485    5.1534   10.9288 H           1 UA3       0.0704
     30 H9         40.0612    6.7295    9.0540 H           1 UA3       0.0680
     31 H10        40.0249    4.4886    9.1770 H           1 UA3       0.2101
     32 H11        42.0843    7.8982    8.3969 H           1 UA3       0.0997
@<TRIPOS>BOND
     1     1     2  am
     2     1     8   1
     3    17     1   1
     4     2     3   2
     5     2     4  am
     6     4     5  am
     7     5     6   2
     8     7     5   1
     9     8     7   2
    10    10     9   1
    11    11    10   1
    12    12    11   1
    13    11    13   1
    14    12    17   1
    15    13    14   1
    16    13    15   1
    17    14    19   1
    18    15    16   1
    19    15    17   1
    20    19    18  ar
    21    19    20  ar
    22    19    21  ar
    23     4    22   1
    24     7    23   1
    25     8    24   1
    26     9    25   1
    27    10    26   1
    28    10    27   1
    29    11    28   1
    30    13    29   1
    31    15    30   1
    32    16    31   1
    33    17    32   1
@<TRIPOS>SUBSTRUCTURE
     1  UA3      2

