@<TRIPOS>MOLECULE
1w4o_ligand_066
    32    33
SMALL
GAST_HUCK
****
This file was generated by PARSER (from files_GN.cpp)

@<TRIPOS>ATOM
      1 N1         41.7096    7.4704    4.6703 N.am        1 UA3      -0.1592
      2 C2         42.0966    8.0384    3.5073 C.2         1 UA3       0.3328
      3 O2         42.5979    7.4072    2.5875 O.2         1 UA3      -0.3815
      4 N3         41.9389    9.3466    3.3126 N.am        1 UA3      -0.1865
      5 C4         41.3998   10.1295    4.2442 C.2         1 UA3       0.1822
      6 O4         41.2822   11.3250    4.0233 O.2         1 UA3      -0.4124
      7 C5         40.9902    9.5990    5.4275 C.2         1 UA3       0.0062
      8 C6         41.1488    8.2765    5.6245 C.2         1 UA3       0.0591
      9 O5         42.6943    3.0205    8.2945 O.3         1 UA3      -0.3924
     10 C5         41.7874    4.0462    7.9054 C.3         1 UA3       0.0734
     11 C4         41.8214    4.2458    6.3697 C.3         1 UA3       0.1182
     12 O4         41.2150    5.5095    6.0474 O.3         1 UA3      -0.3363
     13 C3         43.2589    4.2454    5.7712 C.3         1 UA3       0.1483
     14 O3         43.4249    3.2650    4.7167 O.3         1 UA3      -0.2675
     15 C2         43.3613    5.6511    5.1506 C.3         1 UA3       0.1433
     16 O2         43.9875    6.5588    6.0574 O.3         1 UA3      -0.3833
     17 C1         41.8917    6.0448    4.9004 C.3         1 UA3       0.2062
     18 O3P        44.0000    0.9254    4.1046 O.co2       1 UA3      -0.5537
     19 P          44.2710    1.9930    5.0334 P.3         1 UA3       0.2013
     20 O1P        43.8812    1.5220    6.3364 O.co2       1 UA3      -0.5537
     21 O2P        45.6880    2.2491    5.0732 O.co2       1 UA3      -0.5537
     22 H1         42.2266    9.7383    2.4720 H           1 UA3       0.2259
     23 H2         40.5849   10.1724    6.1333 H           1 UA3       0.0258
     24 H3         40.8570    7.9060    6.4993 H           1 UA3       0.1178
     25 H4         42.5367    2.2953    7.6562 H           1 UA3       0.2095
     26 H5         40.7809    3.7620    8.2241 H           1 UA3       0.0584
     27 H6         42.0745    4.9709    8.4115 H           1 UA3       0.0584
     28 H7         41.2166    3.4616    5.9014 H           1 UA3       0.0650
     29 H8         44.0368    4.1373    6.5367 H           1 UA3       0.0704
     30 H9         43.9389    5.6434    4.2233 H           1 UA3       0.0680
     31 H10        44.9334    6.3002    6.0701 H           1 UA3       0.2101
     32 H11        41.5057    5.5036    4.0289 H           1 UA3       0.0997
@<TRIPOS>BOND
     1     1     2  am
     2     1     8   1
     3    17     1   1
     4     2     3   2
     5     2     4  am
     6     4     5  am
     7     5     6   2
     8     7     5   1
     9     8     7   2
    10    10     9   1
    11    11    10   1
    12    12    11   1
    13    11    13   1
    14    12    17   1
    15    13    14   1
    16    13    15   1
    17    14    19   1
    18    15    16   1
    19    15    17   1
    20    19    18  ar
    21    19    20  ar
    22    19    21  ar
    23     4    22   1
    24     7    23   1
    25     8    24   1
    26     9    25   1
    27    10    26   1
    28    10    27   1
    29    11    28   1
    30    13    29   1
    31    15    30   1
    32    16    31   1
    33    17    32   1
@<TRIPOS>SUBSTRUCTURE
     1  UA3      2

