@<TRIPOS>MOLECULE
1w4o_ligand_006
    32    33
SMALL
GAST_HUCK
****
This file was generated by PARSER (from files_GN.cpp)

@<TRIPOS>ATOM
      1 N1         36.9248    9.3871   15.2982 N.am        1 UA3      -0.1592
      2 C2         38.1207   10.0184   15.3039 C.2         1 UA3       0.3328
      3 O2         38.9609    9.8730   14.4265 O.2         1 UA3      -0.3815
      4 N3         38.4305   10.8559   16.2950 N.am        1 UA3      -0.1865
      5 C4         37.5824   11.0987   17.2928 C.2         1 UA3       0.1822
      6 O4         37.9169   11.8739   18.1764 O.2         1 UA3      -0.4124
      7 C5         36.3682   10.4889   17.3215 C.2         1 UA3       0.0062
      8 C6         36.0533    9.6377   16.3259 C.2         1 UA3       0.0591
      9 O5         33.2050    5.9839   12.0115 O.3         1 UA3      -0.3924
     10 C5         33.5617    6.5248   13.2788 C.3         1 UA3       0.0734
     11 C4         35.0305    7.0421   13.2825 C.3         1 UA3       0.1182
     12 O4         35.1718    8.2501   14.0415 O.3         1 UA3      -0.3363
     13 C3         36.0452    6.0850   13.9470 C.3         1 UA3       0.1483
     14 O3         36.4741    5.1011   12.9826 O.3         1 UA3      -0.2675
     15 C2         37.1829    7.0310   14.4020 C.3         1 UA3       0.1433
     16 O2         37.5666    6.7594   15.7523 O.3         1 UA3      -0.3833
     17 C1         36.5851    8.4530   14.2338 C.3         1 UA3       0.2062
     18 O3P        37.1303    2.8927   12.3420 O.co2       1 UA3      -0.5537
     19 P          36.7074    3.6476   13.4905 P.3         1 UA3       0.2013
     20 O1P        35.4587    3.0755   13.9232 O.co2       1 UA3      -0.5537
     21 O2P        37.7156    3.5443   14.5137 O.co2       1 UA3      -0.5537
     22 H1         39.2929   11.2986   16.2881 H           1 UA3       0.2259
     23 H2         35.7247   10.6603   18.0622 H           1 UA3       0.0258
     24 H3         35.1671    9.1920   16.3645 H           1 UA3       0.1178
     25 H4         32.3338    5.5558   12.1589 H           1 UA3       0.2095
     26 H5         33.4134    5.7385   14.0213 H           1 UA3       0.0584
     27 H6         32.8795    7.3431   13.5100 H           1 UA3       0.0584
     28 H7         35.3191    7.2661   12.2485 H           1 UA3       0.0650
     29 H8         35.5660    5.6557   14.8378 H           1 UA3       0.0704
     30 H9         38.0665    6.9163   13.7652 H           1 UA3       0.0680
     31 H10        37.9908    5.8759   15.7362 H           1 UA3       0.2101
     32 H11        36.9474    8.8814   13.2903 H           1 UA3       0.0997
@<TRIPOS>BOND
     1     1     2  am
     2     1     8   1
     3    17     1   1
     4     2     3   2
     5     2     4  am
     6     4     5  am
     7     5     6   2
     8     7     5   1
     9     8     7   2
    10    10     9   1
    11    11    10   1
    12    12    11   1
    13    11    13   1
    14    12    17   1
    15    13    14   1
    16    13    15   1
    17    14    19   1
    18    15    16   1
    19    15    17   1
    20    19    18  ar
    21    19    20  ar
    22    19    21  ar
    23     4    22   1
    24     7    23   1
    25     8    24   1
    26     9    25   1
    27    10    26   1
    28    10    27   1
    29    11    28   1
    30    13    29   1
    31    15    30   1
    32    16    31   1
    33    17    32   1
@<TRIPOS>SUBSTRUCTURE
     1  UA3      2

