@<TRIPOS>MOLECULE
1w4o_ligand_052
    32    33
SMALL
GAST_HUCK
****
This file was generated by PARSER (from files_GN.cpp)

@<TRIPOS>ATOM
      1 N1         40.9598    7.1068    8.5361 N.am        1 UA3      -0.1592
      2 C2         41.5412    7.4421    7.3617 C.2         1 UA3       0.3328
      3 O2         42.7254    7.2586    7.1182 O.2         1 UA3      -0.3815
      4 N3         40.8206    8.0106    6.3944 N.am        1 UA3      -0.1865
      5 C4         39.5180    8.2397    6.5402 C.2         1 UA3       0.1822
      6 O4         38.9039    8.8136    5.6546 O.2         1 UA3      -0.4124
      7 C5         38.8768    7.8361    7.6664 C.2         1 UA3       0.0062
      8 C6         39.6051    7.2651    8.6422 C.2         1 UA3       0.0591
      9 O5         42.6406    8.9012   12.8398 O.3         1 UA3      -0.3924
     10 C5         42.1876    7.5798   13.1262 C.3         1 UA3       0.0734
     11 C4         42.3014    6.6403   11.9000 C.3         1 UA3       0.1182
     12 O4         41.2668    6.9495   10.9566 O.3         1 UA3      -0.3363
     13 C3         43.6553    6.7172   11.1372 C.3         1 UA3       0.1483
     14 O3         44.3237    5.4395   11.2757 O.3         1 UA3      -0.2675
     15 C2         43.2021    7.0605    9.6995 C.3         1 UA3       0.1433
     16 O2         43.2595    8.4693    9.4735 O.3         1 UA3      -0.3833
     17 C1         41.7375    6.5735    9.6489 C.3         1 UA3       0.2062
     18 O3P        46.6268    6.3484   10.8489 O.co2       1 UA3      -0.5537
     19 P          45.7324    5.2384   10.6384 P.3         1 UA3       0.2013
     20 O1P        45.6646    4.9066    9.2385 O.co2       1 UA3      -0.5537
     21 O2P        46.3224    4.1016   11.2979 O.co2       1 UA3      -0.5537
     22 H1         41.2571    8.2723    5.5679 H           1 UA3       0.2259
     23 H2         37.8899    7.9191    7.7564 H           1 UA3       0.0258
     24 H3         39.1138    6.9285    9.4335 H           1 UA3       0.1178
     25 H4         41.9717    9.2843   12.2342 H           1 UA3       0.2095
     26 H5         41.1470    7.6320   13.4557 H           1 UA3       0.0584
     27 H6         42.7866    7.1811   13.9476 H           1 UA3       0.0584
     28 H7         42.1194    5.6185   12.2522 H           1 UA3       0.0650
     29 H8         44.2799    7.5211   11.5439 H           1 UA3       0.0704
     30 H9         43.8125    6.5626    8.9479 H           1 UA3       0.0680
     31 H10        44.2138    8.6898    9.4482 H           1 UA3       0.2101
     32 H11        41.7154    5.4781    9.5768 H           1 UA3       0.0997
@<TRIPOS>BOND
     1     1     2  am
     2     1     8   1
     3    17     1   1
     4     2     3   2
     5     2     4  am
     6     4     5  am
     7     5     6   2
     8     7     5   1
     9     8     7   2
    10    10     9   1
    11    11    10   1
    12    12    11   1
    13    11    13   1
    14    12    17   1
    15    13    14   1
    16    13    15   1
    17    14    19   1
    18    15    16   1
    19    15    17   1
    20    19    18  ar
    21    19    20  ar
    22    19    21  ar
    23     4    22   1
    24     7    23   1
    25     8    24   1
    26     9    25   1
    27    10    26   1
    28    10    27   1
    29    11    28   1
    30    13    29   1
    31    15    30   1
    32    16    31   1
    33    17    32   1
@<TRIPOS>SUBSTRUCTURE
     1  UA3      2

