@<TRIPOS>MOLECULE
1w4o_ligand_064
    32    33
SMALL
GAST_HUCK
****
This file was generated by PARSER (from files_GN.cpp)

@<TRIPOS>ATOM
      1 N1         41.6679    5.2301    6.6846 N.am        1 UA3      -0.1592
      2 C2         42.5700    4.2371    6.4733 C.2         1 UA3       0.3328
      3 O2         42.9720    3.4732    7.3428 O.2         1 UA3      -0.3815
      4 N3         43.0936    4.0698    5.2650 N.am        1 UA3      -0.1865
      5 C4         42.7442    4.8369    4.2394 C.2         1 UA3       0.1822
      6 O4         43.2466    4.6197    3.1498 O.2         1 UA3      -0.4124
      7 C5         41.7995    5.7969    4.3869 C.2         1 UA3       0.0062
      8 C6         41.2581    5.9695    5.6067 C.2         1 UA3       0.0591
      9 O5         42.9763    8.3809    9.2842 O.3         1 UA3      -0.3924
     10 C5         41.7229    8.3977    9.9774 C.3         1 UA3       0.0734
     11 C4         40.8543    7.1443    9.6762 C.3         1 UA3       0.1182
     12 O4         40.8673    6.8865    8.2728 O.3         1 UA3      -0.3363
     13 C3         41.2707    5.8374   10.3842 C.3         1 UA3       0.1483
     14 O3         40.1112    5.1236   10.8669 O.3         1 UA3      -0.2675
     15 C2         41.8637    5.0100    9.2437 C.3         1 UA3       0.1433
     16 O2         43.2715    5.2308    9.1049 O.3         1 UA3      -0.3833
     17 C1         41.0722    5.4799    7.9922 C.3         1 UA3       0.2062
     18 O3P        39.3611    4.4618   13.0630 O.co2       1 UA3      -0.5537
     19 P          39.4002    5.6017   12.1730 P.3         1 UA3       0.2013
     20 O1P        38.0234    5.9246   11.8835 O.co2       1 UA3      -0.5537
     21 O2P        40.0111    6.7045   12.8771 O.co2       1 UA3      -0.5537
     22 H1         43.7426    3.3691    5.1215 H           1 UA3       0.2259
     23 H2         41.4768    6.3349    3.6173 H           1 UA3       0.0258
     24 H3         40.5321    6.6410    5.6907 H           1 UA3       0.1178
     25 H4         43.6042    7.9216    9.8891 H           1 UA3       0.2095
     26 H5         41.9134    8.5106   11.0559 H           1 UA3       0.0584
     27 H6         41.1907    9.3027    9.6494 H           1 UA3       0.0584
     28 H7         39.8250    7.3891    9.9296 H           1 UA3       0.0650
     29 H8         42.0285    5.9692   11.1614 H           1 UA3       0.0704
     30 H9         41.7100    3.9351    9.4223 H           1 UA3       0.0680
     31 H10        43.3635    6.1098    8.6810 H           1 UA3       0.2101
     32 H11        40.0833    4.9883    8.0017 H           1 UA3       0.0997
@<TRIPOS>BOND
     1     1     2  am
     2     1     8   1
     3    17     1   1
     4     2     3   2
     5     2     4  am
     6     4     5  am
     7     5     6   2
     8     7     5   1
     9     8     7   2
    10    10     9   1
    11    11    10   1
    12    12    11   1
    13    11    13   1
    14    12    17   1
    15    13    14   1
    16    13    15   1
    17    14    19   1
    18    15    16   1
    19    15    17   1
    20    19    18  ar
    21    19    20  ar
    22    19    21  ar
    23     4    22   1
    24     7    23   1
    25     8    24   1
    26     9    25   1
    27    10    26   1
    28    10    27   1
    29    11    28   1
    30    13    29   1
    31    15    30   1
    32    16    31   1
    33    17    32   1
@<TRIPOS>SUBSTRUCTURE
     1  UA3      2

