@<TRIPOS>MOLECULE
1w4o_ligand_065
    32    33
SMALL
GAST_HUCK
****
This file was generated by PARSER (from files_GN.cpp)

@<TRIPOS>ATOM
      1 N1         41.4523    4.4927    7.8335 N.am        1 UA3      -0.1592
      2 C2         41.9215    4.6608    6.5765 C.2         1 UA3       0.3328
      3 O2         42.9909    4.2137    6.1820 O.2         1 UA3      -0.3815
      4 N3         41.2216    5.3747    5.6975 N.am        1 UA3      -0.1865
      5 C4         40.0649    5.9436    6.0267 C.2         1 UA3       0.1822
      6 O4         39.4676    6.6034    5.1925 O.2         1 UA3      -0.4124
      7 C5         39.5607    5.8030    7.2801 C.2         1 UA3       0.0062
      8 C6         40.2630    5.0804    8.1716 C.2         1 UA3       0.0591
      9 O5         41.0710    1.7144   12.9729 O.3         1 UA3      -0.3924
     10 C5         40.7086    1.8061   11.5976 C.3         1 UA3       0.0734
     11 C4         41.8050    2.5090   10.7629 C.3         1 UA3       0.1182
     12 O4         41.3258    2.7349    9.4324 O.3         1 UA3      -0.3363
     13 C3         42.1956    3.9217   11.2611 C.3         1 UA3       0.1483
     14 O3         42.9542    4.0379   12.4895 O.3         1 UA3      -0.2675
     15 C2         42.7819    4.5785    9.9929 C.3         1 UA3       0.1433
     16 O2         42.4878    5.9770    9.9452 O.3         1 UA3      -0.3833
     17 C1         42.1760    3.7305    8.8364 C.3         1 UA3       0.2062
     18 O3P        45.3303    3.5815   11.7604 O.co2       1 UA3      -0.5537
     19 P          44.3116    3.3101   12.7415 P.3         1 UA3       0.2013
     20 O1P        44.1798    1.8914   12.9538 O.co2       1 UA3      -0.5537
     21 O2P        44.8192    3.8334   13.9825 O.co2       1 UA3      -0.5537
     22 H1         41.5666    5.4895    4.7969 H           1 UA3       0.2259
     23 H2         38.7028    6.2330    7.5368 H           1 UA3       0.0258
     24 H3         39.8910    4.9796    9.0893 H           1 UA3       0.1178
     25 H4         41.8350    1.1009   13.0005 H           1 UA3       0.2095
     26 H5         39.7675    2.3546   11.5200 H           1 UA3       0.0584
     27 H6         40.5457    0.7982   11.2106 H           1 UA3       0.0584
     28 H7         42.6812    1.8562   10.7048 H           1 UA3       0.0650
     29 H8         41.2584    4.4485   11.4747 H           1 UA3       0.0704
     30 H9         43.8679    4.4811    9.9736 H           1 UA3       0.0680
     31 H10        42.8898    6.2958    9.1092 H           1 UA3       0.2101
     32 H11        42.9892    3.1634    8.3739 H           1 UA3       0.0997
@<TRIPOS>BOND
     1     1     2  am
     2     1     8   1
     3    17     1   1
     4     2     3   2
     5     2     4  am
     6     4     5  am
     7     5     6   2
     8     7     5   1
     9     8     7   2
    10    10     9   1
    11    11    10   1
    12    12    11   1
    13    11    13   1
    14    12    17   1
    15    13    14   1
    16    13    15   1
    17    14    19   1
    18    15    16   1
    19    15    17   1
    20    19    18  ar
    21    19    20  ar
    22    19    21  ar
    23     4    22   1
    24     7    23   1
    25     8    24   1
    26     9    25   1
    27    10    26   1
    28    10    27   1
    29    11    28   1
    30    13    29   1
    31    15    30   1
    32    16    31   1
    33    17    32   1
@<TRIPOS>SUBSTRUCTURE
     1  UA3      2

