@<TRIPOS>MOLECULE
1w4o_ligand_000
    32    33
SMALL
GAST_HUCK
****
This file was generated by PARSER (from files_GN.cpp)

@<TRIPOS>ATOM
      1 N1         40.9292    9.2412    4.8624 N.am        1 UA3      -0.1592
      2 C2         39.7728    9.8296    5.2446 C.2         1 UA3       0.3328
      3 O2         39.2390    9.6284    6.3280 O.2         1 UA3      -0.3815
      4 N3         39.1563   10.6861    4.4338 N.am        1 UA3      -0.1865
      5 C4         39.6651   11.0156    3.2518 C.2         1 UA3       0.1822
      6 O4         39.0546   11.7999    2.5439 O.2         1 UA3      -0.4124
      7 C5         40.8566   10.4900    2.8484 C.2         1 UA3       0.0062
      8 C6         41.4666    9.5987    3.6565 C.2         1 UA3       0.0591
      9 O5         42.9363    6.2764    3.0851 O.3         1 UA3      -0.3924
     10 C5         43.0407    5.4855    4.2595 C.3         1 UA3       0.0734
     11 C4         42.9261    6.3108    5.5798 C.3         1 UA3       0.1182
     12 O4         42.8384    7.7190    5.2718 O.3         1 UA3      -0.3363
     13 C3         41.6995    5.9674    6.4634 C.3         1 UA3       0.1483
     14 O3         41.9701    6.2506    7.8565 O.3         1 UA3      -0.2675
     15 C2         40.6809    7.0018    5.9644 C.3         1 UA3       0.1433
     16 O2         40.0448    6.5295    4.7769 O.3         1 UA3      -0.3833
     17 C1         41.5654    8.2448    5.7125 C.3         1 UA3       0.2062
     18 O3P        42.4471    5.5759   10.1272 O.co2       1 UA3      -0.5537
     19 P          42.1687    5.0431    8.8182 P.3         1 UA3       0.2013
     20 O1P        43.2524    4.1652    8.4500 O.co2       1 UA3      -0.5537
     21 O2P        40.9452    4.2811    8.9179 O.co2       1 UA3      -0.5537
     22 H1         38.3113   11.0787    4.7146 H           1 UA3       0.2259
     23 H2         41.2772   10.7682    1.9949 H           1 UA3       0.0258
     24 H3         42.3341    9.2179    3.3524 H           1 UA3       0.1178
     25 H4         41.9693    6.4202    2.9459 H           1 UA3       0.2095
     26 H5         42.2928    4.6829    4.2081 H           1 UA3       0.0584
     27 H6         44.0211    5.0060    4.2243 H           1 UA3       0.0584
     28 H7         43.8337    6.1517    6.1574 H           1 UA3       0.0650
     29 H8         41.3062    4.9551    6.2948 H           1 UA3       0.0704
     30 H9         39.9113    7.1850    6.7219 H           1 UA3       0.0680
     31 H10        39.6611    7.3183    4.3369 H           1 UA3       0.2101
     32 H11        41.7787    8.7251    6.6784 H           1 UA3       0.0997
@<TRIPOS>BOND
     1     1     2  am
     2     1     8   1
     3    17     1   1
     4     2     3   2
     5     2     4  am
     6     4     5  am
     7     5     6   2
     8     7     5   1
     9     8     7   2
    10    10     9   1
    11    11    10   1
    12    12    11   1
    13    11    13   1
    14    12    17   1
    15    13    14   1
    16    13    15   1
    17    14    19   1
    18    15    16   1
    19    15    17   1
    20    19    18  ar
    21    19    20  ar
    22    19    21  ar
    23     4    22   1
    24     7    23   1
    25     8    24   1
    26     9    25   1
    27    10    26   1
    28    10    27   1
    29    11    28   1
    30    13    29   1
    31    15    30   1
    32    16    31   1
    33    17    32   1
@<TRIPOS>SUBSTRUCTURE
     1  UA3      2

