@<TRIPOS>MOLECULE
1w4o_ligand_057
    32    33
SMALL
GAST_HUCK
****
This file was generated by PARSER (from files_GN.cpp)

@<TRIPOS>ATOM
      1 N1         43.8186    7.1981    7.4109 N.am        1 UA3      -0.1592
      2 C2         42.6125    7.4707    6.8680 C.2         1 UA3       0.3328
      3 O2         41.6500    7.8452    7.5247 O.2         1 UA3      -0.3815
      4 N3         42.4185    7.3579    5.5552 N.am        1 UA3      -0.1865
      5 C4         43.3910    6.9625    4.7399 C.2         1 UA3       0.1822
      6 O4         43.1989    6.9643    3.5308 O.2         1 UA3      -0.4124
      7 C5         44.6071    6.6208    5.2477 C.2         1 UA3       0.0062
      8 C6         44.8057    6.7424    6.5771 C.2         1 UA3       0.0591
      9 O5         42.1560    5.4401   12.2764 O.3         1 UA3      -0.3924
     10 C5         41.7919    6.6397   11.5977 C.3         1 UA3       0.0734
     11 C4         43.0093    7.2359   10.8579 C.3         1 UA3       0.1182
     12 O4         43.2537    6.5427    9.6251 O.3         1 UA3      -0.3363
     13 C3         42.8264    8.7063   10.4303 C.3         1 UA3       0.1483
     14 O3         42.9923    9.5665   11.5859 O.3         1 UA3      -0.2675
     15 C2         43.9287    8.8423    9.3605 C.3         1 UA3       0.1433
     16 O2         43.5931    9.8140    8.3719 O.3         1 UA3      -0.3833
     17 C1         44.1004    7.3843    8.8288 C.3         1 UA3       0.2062
     18 O3P        42.6552   11.6519   12.7560 O.co2       1 UA3      -0.5537
     19 P          42.4495   11.0156   11.4806 P.3         1 UA3       0.2013
     20 O1P        41.0275   10.9911   11.2506 O.co2       1 UA3      -0.5537
     21 O2P        43.1118   11.8188   10.4827 O.co2       1 UA3      -0.5537
     22 H1         41.5577    7.6002    5.1796 H           1 UA3       0.2259
     23 H2         45.3382    6.3025    4.6514 H           1 UA3       0.0258
     24 H3         45.6992    6.4810    6.9294 H           1 UA3       0.1178
     25 H4         41.3544    5.1810   12.7817 H           1 UA3       0.2095
     26 H5         41.4154    7.3543   12.3375 H           1 UA3       0.0584
     27 H6         40.9933    6.4148   10.8888 H           1 UA3       0.0584
     28 H7         43.8905    7.1446   11.5035 H           1 UA3       0.0650
     29 H8         41.8353    8.8028    9.9708 H           1 UA3       0.0704
     30 H9         44.8513    9.1725    9.8473 H           1 UA3       0.0680
     31 H10        44.3687    9.8388    7.7685 H           1 UA3       0.2101
     32 H11        45.1260    7.0809    9.0677 H           1 UA3       0.0997
@<TRIPOS>BOND
     1     1     2  am
     2     1     8   1
     3    17     1   1
     4     2     3   2
     5     2     4  am
     6     4     5  am
     7     5     6   2
     8     7     5   1
     9     8     7   2
    10    10     9   1
    11    11    10   1
    12    12    11   1
    13    11    13   1
    14    12    17   1
    15    13    14   1
    16    13    15   1
    17    14    19   1
    18    15    16   1
    19    15    17   1
    20    19    18  ar
    21    19    20  ar
    22    19    21  ar
    23     4    22   1
    24     7    23   1
    25     8    24   1
    26     9    25   1
    27    10    26   1
    28    10    27   1
    29    11    28   1
    30    13    29   1
    31    15    30   1
    32    16    31   1
    33    17    32   1
@<TRIPOS>SUBSTRUCTURE
     1  UA3      2

