@<TRIPOS>MOLECULE
1w4o_ligand_034
    32    33
SMALL
GAST_HUCK
****
This file was generated by PARSER (from files_GN.cpp)

@<TRIPOS>ATOM
      1 N1         41.4917    8.1096    8.6830 N.am        1 UA3      -0.1592
      2 C2         41.7863    9.4102    8.9147 C.2         1 UA3       0.3328
      3 O2         42.9002    9.8188    9.2119 O.2         1 UA3      -0.3815
      4 N3         40.8328   10.3337    8.8475 N.am        1 UA3      -0.1865
      5 C4         39.5724   10.0181    8.5594 C.2         1 UA3       0.1822
      6 O4         38.7367   10.9078    8.5219 O.2         1 UA3      -0.4124
      7 C5         39.2314    8.7244    8.3122 C.2         1 UA3       0.0062
      8 C6         40.1975    7.7868    8.3672 C.2         1 UA3       0.0591
      9 O5         43.3613    4.1767    5.6803 O.3         1 UA3      -0.3924
     10 C5         42.4497    3.9941    6.7600 C.3         1 UA3       0.0734
     11 C4         42.8134    4.9423    7.9255 C.3         1 UA3       0.1182
     12 O4         42.5578    6.3048    7.5710 O.3         1 UA3      -0.3363
     13 C3         41.9985    4.7029    9.2074 C.3         1 UA3       0.1483
     14 O3         42.5379    3.5485    9.8902 O.3         1 UA3      -0.2675
     15 C2         42.2125    6.0392    9.9470 C.3         1 UA3       0.1433
     16 O2         41.1052    6.3852   10.7828 O.3         1 UA3      -0.3833
     17 C1         42.4860    7.0541    8.7995 C.3         1 UA3       0.2062
     18 O3P        40.3798    3.4253   11.2279 O.co2       1 UA3      -0.5537
     19 P          41.6063    2.7647   10.8624 P.3         1 UA3       0.2013
     20 O1P        42.3314    2.4174   12.0601 O.co2       1 UA3      -0.5537
     21 O2P        41.2471    1.5189   10.2308 O.co2       1 UA3      -0.5537
     22 H1         41.0643   11.2616    9.0142 H           1 UA3       0.2259
     23 H2         38.2934    8.4691    8.0987 H           1 UA3       0.0258
     24 H3         39.9378    6.8428    8.1913 H           1 UA3       0.1178
     25 H4         43.3840    5.1469    5.5210 H           1 UA3       0.2095
     26 H5         42.5233    2.9548    7.0907 H           1 UA3       0.0584
     27 H6         41.4240    4.1820    6.4186 H           1 UA3       0.0584
     28 H7         43.8811    4.8178    8.1509 H           1 UA3       0.0650
     29 H8         40.9396    4.5953    8.9265 H           1 UA3       0.0704
     30 H9         43.1057    5.9711   10.5830 H           1 UA3       0.0680
     31 H10        41.0921    5.6928   11.4753 H           1 UA3       0.2101
     32 H11        43.4892    7.4644    8.9522 H           1 UA3       0.0997
@<TRIPOS>BOND
     1     1     2  am
     2     1     8   1
     3    17     1   1
     4     2     3   2
     5     2     4  am
     6     4     5  am
     7     5     6   2
     8     7     5   1
     9     8     7   2
    10    10     9   1
    11    11    10   1
    12    12    11   1
    13    11    13   1
    14    12    17   1
    15    13    14   1
    16    13    15   1
    17    14    19   1
    18    15    16   1
    19    15    17   1
    20    19    18  ar
    21    19    20  ar
    22    19    21  ar
    23     4    22   1
    24     7    23   1
    25     8    24   1
    26     9    25   1
    27    10    26   1
    28    10    27   1
    29    11    28   1
    30    13    29   1
    31    15    30   1
    32    16    31   1
    33    17    32   1
@<TRIPOS>SUBSTRUCTURE
     1  UA3      2

