@<TRIPOS>MOLECULE
1w4o_ligand_001
    32    33
SMALL
GAST_HUCK
****
This file was generated by PARSER (from files_GN.cpp)

@<TRIPOS>ATOM
      1 N1         37.6468    7.8780   16.9422 N.am        1 UA3      -0.1592
      2 C2         38.8161    7.9250   17.6159 C.2         1 UA3       0.3328
      3 O2         39.9012    7.6982   17.0988 O.2         1 UA3      -0.3815
      4 N3         38.8286    8.2098   18.9170 N.am        1 UA3      -0.1865
      5 C4         37.7035    8.4460   19.5897 C.2         1 UA3       0.1822
      6 O4         37.7673    8.6928   20.7847 O.2         1 UA3      -0.4124
      7 C5         36.5008    8.3900   18.9558 C.2         1 UA3       0.0062
      8 C6         36.4887    8.1003   17.6409 C.2         1 UA3       0.0591
      9 O5         34.6885    9.2589   13.3034 O.3         1 UA3      -0.3924
     10 C5         34.8564    7.8544   13.1054 C.3         1 UA3       0.0734
     11 C4         36.2215    7.3852   13.6770 C.3         1 UA3       0.1182
     12 O4         36.5364    8.1743   14.8286 O.3         1 UA3      -0.3363
     13 C3         36.2845    5.9246   14.1844 C.3         1 UA3       0.1483
     14 O3         36.5579    5.0278   13.0841 O.3         1 UA3      -0.2675
     15 C2         37.3718    5.9887   15.2899 C.3         1 UA3       0.1433
     16 O2         36.9519    5.2930   16.4683 O.3         1 UA3      -0.3833
     17 C1         37.5935    7.5055   15.5320 C.3         1 UA3       0.2062
     18 O3P        35.4165    2.9538   13.8696 O.co2       1 UA3      -0.5537
     19 P          36.6662    3.5100   13.4162 P.3         1 UA3       0.2013
     20 O1P        37.7144    3.2125   14.3631 O.co2       1 UA3      -0.5537
     21 O2P        36.9956    2.8241   12.1920 O.co2       1 UA3      -0.5537
     22 H1         39.6730    8.2340   19.3913 H           1 UA3       0.2259
     23 H2         35.6486    8.5303   19.4508 H           1 UA3       0.0258
     24 H3         35.6027    8.0306   17.1902 H           1 UA3       0.1178
     25 H4         33.7241    9.4089   13.3871 H           1 UA3       0.2095
     26 H5         34.8050    7.6442   12.0357 H           1 UA3       0.0584
     27 H6         34.0290    7.3419   13.5982 H           1 UA3       0.0584
     28 H7         36.9930    7.5584   12.9163 H           1 UA3       0.0650
     29 H8         35.3190    5.6856   14.6461 H           1 UA3       0.0704
     30 H9         38.3066    5.5393   14.9410 H           1 UA3       0.0680
     31 H10        36.7997    4.3593   16.2060 H           1 UA3       0.2101
     32 H11        38.5182    7.8215   15.0257 H           1 UA3       0.0997
@<TRIPOS>BOND
     1     1     2  am
     2     1     8   1
     3    17     1   1
     4     2     3   2
     5     2     4  am
     6     4     5  am
     7     5     6   2
     8     7     5   1
     9     8     7   2
    10    10     9   1
    11    11    10   1
    12    12    11   1
    13    11    13   1
    14    12    17   1
    15    13    14   1
    16    13    15   1
    17    14    19   1
    18    15    16   1
    19    15    17   1
    20    19    18  ar
    21    19    20  ar
    22    19    21  ar
    23     4    22   1
    24     7    23   1
    25     8    24   1
    26     9    25   1
    27    10    26   1
    28    10    27   1
    29    11    28   1
    30    13    29   1
    31    15    30   1
    32    16    31   1
    33    17    32   1
@<TRIPOS>SUBSTRUCTURE
     1  UA3      2

