@<TRIPOS>MOLECULE
1w4o_ligand_003
    32    33
SMALL
GAST_HUCK
****
This file was generated by PARSER (from files_GN.cpp)

@<TRIPOS>ATOM
      1 N1         40.7923    4.8354   10.1977 N.am        1 UA3      -0.1592
      2 C2         41.4172    3.6396   10.2858 C.2         1 UA3       0.3328
      3 O2         42.4267    3.3528    9.6505 O.2         1 UA3      -0.3815
      4 N3         40.9417    2.6977   11.0976 N.am        1 UA3      -0.1865
      5 C4         39.8498    2.8963   11.8305 C.2         1 UA3       0.1822
      6 O4         39.4545    1.9981   12.5609 O.2         1 UA3      -0.4124
      7 C5         39.1906    4.0858   11.7671 C.2         1 UA3       0.0062
      8 C6         39.6693    5.0420   10.9494 C.2         1 UA3       0.0591
      9 O5         38.7257    8.5276    7.6831 O.3         1 UA3      -0.3924
     10 C5         39.9932    9.0373    8.0821 C.3         1 UA3       0.0734
     11 C4         41.0578    7.9316    8.2860 C.3         1 UA3       0.1182
     12 O4         40.7414    7.1825    9.4722 O.3         1 UA3      -0.3363
     13 C3         41.2210    6.9072    7.1217 C.3         1 UA3       0.1483
     14 O3         42.5510    7.0696    6.5636 O.3         1 UA3      -0.2675
     15 C2         40.9272    5.5627    7.8299 C.3         1 UA3       0.1433
     16 O2         39.5536    5.1784    7.6899 O.3         1 UA3      -0.3833
     17 C1         41.2800    5.8627    9.2973 C.3         1 UA3       0.2062
     18 O3P        42.0970    5.5673    4.5886 O.co2       1 UA3      -0.5537
     19 P          43.0901    6.0591    5.5103 P.3         1 UA3       0.2013
     20 O1P        43.6994    4.9479    6.2025 O.co2       1 UA3      -0.5537
     21 O2P        44.1489    6.6708    4.7472 O.co2       1 UA3      -0.5537
     22 H1         41.3998    1.8436   11.1519 H           1 UA3       0.2259
     23 H2         38.3645    4.2434   12.2978 H           1 UA3       0.0258
     24 H3         39.1625    5.8951   10.8898 H           1 UA3       0.1178
     25 H4         38.5977    7.6967    8.1912 H           1 UA3       0.2095
     26 H5         39.8520    9.5845    9.0149 H           1 UA3       0.0584
     27 H6         40.3297    9.7473    7.3235 H           1 UA3       0.0584
     28 H7         42.0097    8.4393    8.4811 H           1 UA3       0.0650
     29 H8         40.4831    7.0865    6.3324 H           1 UA3       0.0704
     30 H9         41.5317    4.7379    7.4492 H           1 UA3       0.0680
     31 H10        39.0330    5.7120    8.3262 H           1 UA3       0.2101
     32 H11        42.3684    5.9465    9.4113 H           1 UA3       0.0997
@<TRIPOS>BOND
     1     1     2  am
     2     1     8   1
     3    17     1   1
     4     2     3   2
     5     2     4  am
     6     4     5  am
     7     5     6   2
     8     7     5   1
     9     8     7   2
    10    10     9   1
    11    11    10   1
    12    12    11   1
    13    11    13   1
    14    12    17   1
    15    13    14   1
    16    13    15   1
    17    14    19   1
    18    15    16   1
    19    15    17   1
    20    19    18  ar
    21    19    20  ar
    22    19    21  ar
    23     4    22   1
    24     7    23   1
    25     8    24   1
    26     9    25   1
    27    10    26   1
    28    10    27   1
    29    11    28   1
    30    13    29   1
    31    15    30   1
    32    16    31   1
    33    17    32   1
@<TRIPOS>SUBSTRUCTURE
     1  UA3      2

