@<TRIPOS>MOLECULE
1w4o_ligand_012
    32    33
SMALL
GAST_HUCK
****
This file was generated by PARSER (from files_GN.cpp)

@<TRIPOS>ATOM
      1 N1         41.0841    7.4055    5.0435 N.am        1 UA3      -0.1592
      2 C2         41.7578    7.8004    3.9350 C.2         1 UA3       0.3328
      3 O2         42.6131    7.1176    3.3830 O.2         1 UA3      -0.3815
      4 N3         41.5243    8.9865    3.3828 N.am        1 UA3      -0.1865
      5 C4         40.6177    9.8195    3.8921 C.2         1 UA3       0.1822
      6 O4         40.4407   10.9065    3.3566 O.2         1 UA3      -0.4124
      7 C5         39.8911    9.4593    4.9893 C.2         1 UA3       0.0062
      8 C6         40.1377    8.2595    5.5503 C.2         1 UA3       0.0591
      9 O5         40.1085    6.7384    9.3909 O.3         1 UA3      -0.3924
     10 C5         40.7312    5.4539    9.2522 C.3         1 UA3       0.0734
     11 C4         41.3780    5.2358    7.8567 C.3         1 UA3       0.1182
     12 O4         40.5683    5.8454    6.8476 O.3         1 UA3      -0.3363
     13 C3         42.7813    5.8575    7.6828 C.3         1 UA3       0.1483
     14 O3         43.8791    5.0084    8.1091 O.3         1 UA3      -0.2675
     15 C2         42.8559    6.0012    6.1565 C.3         1 UA3       0.1433
     16 O2         43.7181    7.0878    5.8204 O.3         1 UA3      -0.3833
     17 C1         41.3810    6.1348    5.6893 C.3         1 UA3       0.2062
     18 O3P        46.0128    4.9245    9.1900 O.co2       1 UA3      -0.5537
     19 P          44.6578    5.3662    9.4033 P.3         1 UA3       0.2013
     20 O1P        44.1939    4.6432   10.5619 O.co2       1 UA3      -0.5537
     21 O2P        44.7378    6.7830    9.6646 O.co2       1 UA3      -0.5537
     22 H1         42.0173    9.2592    2.5888 H           1 UA3       0.2259
     23 H2         39.1934   10.0651    5.3648 H           1 UA3       0.0258
     24 H3         39.6129    8.0130    6.3564 H           1 UA3       0.1178
     25 H4         39.2533    6.6429    8.9156 H           1 UA3       0.2095
     26 H5         39.9735    4.6824    9.4430 H           1 UA3       0.0584
     27 H6         41.4919    5.3613   10.0365 H           1 UA3       0.0584
     28 H7         41.4315    4.1528    7.6695 H           1 UA3       0.0650
     29 H8         42.7934    6.8615    8.1243 H           1 UA3       0.0704
     30 H9         43.2823    5.0889    5.7200 H           1 UA3       0.0680
     31 H10        44.1268    6.8427    4.9586 H           1 UA3       0.2101
     32 H11        41.1647    5.3373    4.9799 H           1 UA3       0.0997
@<TRIPOS>BOND
     1     1     2  am
     2     1     8   1
     3    17     1   1
     4     2     3   2
     5     2     4  am
     6     4     5  am
     7     5     6   2
     8     7     5   1
     9     8     7   2
    10    10     9   1
    11    11    10   1
    12    12    11   1
    13    11    13   1
    14    12    17   1
    15    13    14   1
    16    13    15   1
    17    14    19   1
    18    15    16   1
    19    15    17   1
    20    19    18  ar
    21    19    20  ar
    22    19    21  ar
    23     4    22   1
    24     7    23   1
    25     8    24   1
    26     9    25   1
    27    10    26   1
    28    10    27   1
    29    11    28   1
    30    13    29   1
    31    15    30   1
    32    16    31   1
    33    17    32   1
@<TRIPOS>SUBSTRUCTURE
     1  UA3      2

