@<TRIPOS>MOLECULE
1w4o_ligand_061
    32    33
SMALL
GAST_HUCK
****
This file was generated by PARSER (from files_GN.cpp)

@<TRIPOS>ATOM
      1 N1         42.8690    7.2025    6.6114 N.am        1 UA3      -0.1592
      2 C2         41.7712    6.6023    6.0923 C.2         1 UA3       0.3328
      3 O2         40.6822    6.5412    6.6391 O.2         1 UA3      -0.3815
      4 N3         41.8242    6.0226    4.8953 N.am        1 UA3      -0.1865
      5 C4         42.9482    5.9828    4.1895 C.2         1 UA3       0.1822
      6 O4         42.8974    5.5579    3.0453 O.2         1 UA3      -0.4124
      7 C5         44.1026    6.4616    4.7231 C.2         1 UA3       0.0062
      8 C6         44.0492    7.0521    5.9316 C.2         1 UA3       0.0591
      9 O5         39.0889    9.1126    7.1122 O.3         1 UA3      -0.3924
     10 C5         39.5122    9.1442    8.4700 C.3         1 UA3       0.0734
     11 C4         41.0472    9.2293    8.6674 C.3         1 UA3       0.1182
     12 O4         41.6431    7.9246    8.5955 O.3         1 UA3      -0.3363
     13 C3         41.8123   10.1368    7.6742 C.3         1 UA3       0.1483
     14 O3         41.9189   11.5100    8.1166 O.3         1 UA3      -0.2675
     15 C2         43.1976    9.4825    7.7100 C.3         1 UA3       0.1433
     16 O2         43.9837    9.8785    6.5834 O.3         1 UA3      -0.3833
     17 C1         42.8810    7.9670    7.8579 C.3         1 UA3       0.2062
     18 O3P        41.2431   13.8351    8.1077 O.co2       1 UA3      -0.5537
     19 P          40.9745   12.5670    7.4756 P.3         1 UA3       0.2013
     20 O1P        39.5732   12.2796    7.6592 O.co2       1 UA3      -0.5537
     21 O2P        41.2556   12.7282    6.0704 O.co2       1 UA3      -0.5537
     22 H1         41.0150    5.6444    4.5176 H           1 UA3       0.2259
     23 H2         44.9689    6.3690    4.2480 H           1 UA3       0.0258
     24 H3         44.9025    7.3879    6.3233 H           1 UA3       0.1178
     25 H4         39.5280    8.3356    6.7128 H           1 UA3       0.2095
     26 H5         39.1321    8.2440    8.9567 H           1 UA3       0.0584
     27 H6         39.0369   10.0076    8.9376 H           1 UA3       0.0584
     28 H7         41.2319    9.5903    9.6851 H           1 UA3       0.0650
     29 H8         41.4195   10.0239    6.6559 H           1 UA3       0.0704
     30 H9         43.7337    9.8172    8.6046 H           1 UA3       0.0680
     31 H10        43.4715    9.6095    5.7921 H           1 UA3       0.2101
     32 H11        43.6313    7.5150    8.5158 H           1 UA3       0.0997
@<TRIPOS>BOND
     1     1     2  am
     2     1     8   1
     3    17     1   1
     4     2     3   2
     5     2     4  am
     6     4     5  am
     7     5     6   2
     8     7     5   1
     9     8     7   2
    10    10     9   1
    11    11    10   1
    12    12    11   1
    13    11    13   1
    14    12    17   1
    15    13    14   1
    16    13    15   1
    17    14    19   1
    18    15    16   1
    19    15    17   1
    20    19    18  ar
    21    19    20  ar
    22    19    21  ar
    23     4    22   1
    24     7    23   1
    25     8    24   1
    26     9    25   1
    27    10    26   1
    28    10    27   1
    29    11    28   1
    30    13    29   1
    31    15    30   1
    32    16    31   1
    33    17    32   1
@<TRIPOS>SUBSTRUCTURE
     1  UA3      2

