@<TRIPOS>MOLECULE
1w4o_ligand_037
    32    33
SMALL
GAST_HUCK
****
This file was generated by PARSER (from files_GN.cpp)

@<TRIPOS>ATOM
      1 N1         42.6460    6.9648    5.9789 N.am        1 UA3      -0.1592
      2 C2         43.0635    6.4186    4.8115 C.2         1 UA3       0.3328
      3 O2         43.2466    7.0697    3.7882 O.2         1 UA3      -0.3815
      4 N3         43.2919    5.1113    4.7284 N.am        1 UA3      -0.1865
      5 C4         43.1390    4.3074    5.7745 C.2         1 UA3       0.1822
      6 O4         43.4254    3.1281    5.6591 O.2         1 UA3      -0.4124
      7 C5         42.7364    4.8118    6.9719 C.2         1 UA3       0.0062
      8 C6         42.4891    6.1292    7.0538 C.2         1 UA3       0.0591
      9 O5         39.0082    9.5422    8.1713 O.3         1 UA3      -0.3924
     10 C5         40.1512   10.4000    8.2286 C.3         1 UA3       0.0734
     11 C4         41.1698   10.0822    7.1050 C.3         1 UA3       0.1182
     12 O4         41.7604    8.8044    7.3216 O.3         1 UA3      -0.3363
     13 C3         40.5634   10.0148    5.6889 C.3         1 UA3       0.1483
     14 O3         40.5404   11.3456    5.1228 O.3         1 UA3      -0.2675
     15 C2         41.5000    9.0111    4.9749 C.3         1 UA3       0.1433
     16 O2         40.7448    8.0212    4.2741 O.3         1 UA3      -0.3833
     17 C1         42.3951    8.3997    6.0912 C.3         1 UA3       0.2062
     18 O3P        38.2981   11.0594    4.0581 O.co2       1 UA3      -0.5537
     19 P          39.6238   11.6037    3.8908 P.3         1 UA3       0.2013
     20 O1P        40.1948   11.1627    2.6387 O.co2       1 UA3      -0.5537
     21 O2P        39.4677   13.0356    3.7955 O.co2       1 UA3      -0.5537
     22 H1         43.5758    4.7336    3.8836 H           1 UA3       0.2259
     23 H2         42.6381    4.2243    7.7708 H           1 UA3       0.0258
     24 H3         42.2059    6.4844    7.9399 H           1 UA3       0.1178
     25 H4         39.2849    8.7133    8.6322 H           1 UA3       0.2095
     26 H5         40.6279   10.2938    9.2093 H           1 UA3       0.0584
     27 H6         39.8058   11.4321    8.1269 H           1 UA3       0.0584
     28 H7         41.9578   10.8395    7.1409 H           1 UA3       0.0650
     29 H8         39.5522    9.5952    5.7550 H           1 UA3       0.0704
     30 H9         42.1374    9.5319    4.2458 H           1 UA3       0.0680
     31 H10        40.1637    8.5329    3.6733 H           1 UA3       0.2101
     32 H11        43.3707    8.9006    6.0648 H           1 UA3       0.0997
@<TRIPOS>BOND
     1     1     2  am
     2     1     8   1
     3    17     1   1
     4     2     3   2
     5     2     4  am
     6     4     5  am
     7     5     6   2
     8     7     5   1
     9     8     7   2
    10    10     9   1
    11    11    10   1
    12    12    11   1
    13    11    13   1
    14    12    17   1
    15    13    14   1
    16    13    15   1
    17    14    19   1
    18    15    16   1
    19    15    17   1
    20    19    18  ar
    21    19    20  ar
    22    19    21  ar
    23     4    22   1
    24     7    23   1
    25     8    24   1
    26     9    25   1
    27    10    26   1
    28    10    27   1
    29    11    28   1
    30    13    29   1
    31    15    30   1
    32    16    31   1
    33    17    32   1
@<TRIPOS>SUBSTRUCTURE
     1  UA3      2

