@<TRIPOS>MOLECULE
1xd0_ligand_082
   111   115
SMALL
GAST_HUCK
****
This file was generated by PARSER (from files_GN.cpp)

@<TRIPOS>ATOM
      1 CR1        -0.2808   16.2777   39.1706 C.3         1 MOL       0.1854
      2 CR2         0.9835   17.1209   38.8607 C.3         1 MOL       0.1339
      3 CR3         2.1834   16.6232   39.7038 C.3         1 MOL       0.1144
      4 CR4         1.8325   16.5566   41.2232 C.3         1 MOL       0.1184
      5 CR5         0.4949   15.7806   41.4545 C.3         1 MOL       0.1134
      6 CR6        -0.0293   15.9473   42.9037 C.3         1 MOL       0.0730
      7 OR1        -0.1976   14.9519   38.6410 O.3         1 MOL      -0.3649
      8 OR2         1.3024   17.0589   37.4708 O.3         1 MOL      -0.3841
      9 OR3         3.2896   17.4961   39.5023 O.3         1 MOL      -0.3864
     10 OR4         2.8916   16.0698   42.0910 O.3         1 MOL      -0.3401
     11 OR5        -0.5566   16.2579   40.5848 O.3         1 MOL      -0.3407
     12 OR6        -0.9712   14.9397   43.2510 O.3         1 MOL      -0.3924
     13 CV1         3.7329   14.9659   41.6816 C.3         1 MOL       0.1886
     14 CV2         4.4158   14.2694   42.8863 C.3         1 MOL       0.1370
     15 CV3         5.5218   15.1692   43.5107 C.3         1 MOL       0.1304
     16 CV4         6.5179   15.6793   42.4244 C.3         1 MOL       0.0334
     17 CV5         5.7023   16.3720   41.2861 C.3         1 MOL       0.1038
     18 CV6         6.5496   16.8547   40.0808 C.3         1 MOL      -0.0332
     19 OV2         3.4337   13.9086   43.8572 O.3         1 MOL      -0.3840
     20 OV3         6.2139   14.4498   44.5308 O.3         1 MOL      -0.3834
     21 NV4         7.5360   16.6091   42.9982 N.4         1 MOL       0.2370
     22 OV5         4.7386   15.4289   40.7546 O.3         1 MOL      -0.3401
     23 CQ1        12.6982   17.1056   39.9630 C.3         1 MOL       0.1883
     24 CQ2        12.6646   17.1627   38.4112 C.3         1 MOL       0.1341
     25 CQ3        14.0806   16.9357   37.8099 C.3         1 MOL       0.1144
     26 CQ4        14.8212   15.7077   38.4280 C.3         1 MOL       0.1184
     27 CQ5        14.7016   15.6659   39.9848 C.3         1 MOL       0.1134
     28 CQ6        15.7008   16.5636   40.7574 C.3         1 MOL       0.0730
     29 OQ2        11.7749   16.1747   37.8889 O.3         1 MOL      -0.3841
     30 OQ3        14.8658   18.1148   37.9835 O.3         1 MOL      -0.3864
     31 OQ4        14.2259   14.4861   37.9214 O.3         1 MOL      -0.3401
     32 OQ5        13.3367   15.8844   40.3896 O.3         1 MOL      -0.3405
     33 OQ6        17.0463   16.1490   40.5303 O.3         1 MOL      -0.3924
     34 CW1        15.0469   13.4766   37.2876 C.3         1 MOL       0.1884
     35 CW2        16.0604   12.7592   38.2327 C.3         1 MOL       0.1341
     36 CW3        16.9579   11.7661   37.4454 C.3         1 MOL       0.1141
     37 CW4        17.5502   12.4001   36.1518 C.3         1 MOL       0.1119
     38 CW5        16.5117   13.2077   35.3077 C.3         1 MOL       0.1130
     39 CW6        15.7044   12.3902   34.2620 C.3         1 MOL       0.0730
     40 OW2        16.9046   13.6967   38.8986 O.3         1 MOL      -0.3841
     41 OW3        16.2547   10.5571   37.1634 O.3         1 MOL      -0.3864
     42 OW4        18.6244   13.2689   36.5343 O.3         1 MOL      -0.3865
     43 OW5        15.6854   14.0550   36.1283 O.3         1 MOL      -0.3405
     44 OW6        14.6054   11.6652   34.7951 O.3         1 MOL      -0.3924
     45 CY1         8.7616   16.0998   43.6947 C.3         1 MOL       0.0073
     46 CY2         9.7573   17.2793   43.9375 C.3         1 MOL       0.1257
     47 OY2         9.1206   18.3082   44.6963 O.3         1 MOL      -0.3835
     48 CY3        10.3590   17.8209   42.6043 C.3         1 MOL       0.1127
     49 OY3        11.3184   18.8361   42.8752 O.3         1 MOL      -0.3864
     50 CY4        11.0237   16.6842   41.7602 C.3         1 MOL       0.0953
     51 OY4        11.3446   17.2029   40.4482 O.3         1 MOL      -0.3424
     52 CY5        10.0657   15.4660   41.5676 C.3         1 MOL       0.0162
     53 CY6         9.5456   14.9790   42.9487 C.3         1 MOL       0.0002
     54 CY7        10.6598   14.2968   40.7298 C.3         1 MOL       0.0497
     55 OY7        11.7616   13.6541   41.3642 O.3         1 MOL      -0.3946
     56 H1         -1.1348   16.7558   38.6832 H           1 MOL       0.0935
     57 H2          0.7825   18.1674   39.1150 H           1 MOL       0.0671
     58 H3          2.4663   15.6321   39.3444 H           1 MOL       0.0648
     59 H4          1.6584   17.5888   41.5460 H           1 MOL       0.0651
     60 H5          0.6583   14.7161   41.2747 H           1 MOL       0.0647
     61 H6         -0.5143   16.9198   43.0182 H           1 MOL       0.0584
     62 H7          0.7937   15.8875   43.6160 H           1 MOL       0.0584
     63 H8          0.5558   14.5285   39.1009 H           1 MOL       0.2126
     64 H9          0.5671   17.5195   37.0142 H           1 MOL       0.2101
     65 H10         3.5683   17.3518   38.5733 H           1 MOL       0.2100
     66 H11        -1.7010   15.0290   42.6011 H           1 MOL       0.2095
     67 H12         3.1275   14.2040   41.1789 H           1 MOL       0.0938
     68 H13         4.8755   13.3457   42.5306 H           1 MOL       0.0672
     69 H14         5.0464   16.0285   43.9950 H           1 MOL       0.0679
     70 H15         6.9978   14.8123   41.9660 H           1 MOL       0.0903
     71 H16         5.1828   17.2500   41.6883 H           1 MOL       0.0652
     72 H17         5.8984   17.2908   39.3203 H           1 MOL       0.0257
     73 H18         7.0946   16.0281   39.6322 H           1 MOL       0.0257
     74 H19         7.2582   17.6232   40.3842 H           1 MOL       0.0257
     75 H20         3.9261   13.4437   44.5661 H           1 MOL       0.2101
     76 H21         6.3802   13.5548   44.1667 H           1 MOL       0.2102
     77 H22         7.0600   17.2415   43.6475 H           1 MOL       0.2022
     78 H23         7.8687   17.1843   42.2317 H           1 MOL       0.2022
     79 H24        13.2442   17.9676   40.3512 H           1 MOL       0.0938
     80 H25        12.2890   18.1376   38.0899 H           1 MOL       0.0671
     81 H26        13.9940   16.7823   36.7275 H           1 MOL       0.0648
     82 H27        15.8753   15.7794   38.1380 H           1 MOL       0.0651
     83 H28        14.9251   14.6454   40.3071 H           1 MOL       0.0647
     84 H29        15.4948   16.4896   41.8281 H           1 MOL       0.0584
     85 H30        15.6039   17.6105   40.4641 H           1 MOL       0.0584
     86 H31        10.8851   16.4320   38.2089 H           1 MOL       0.2101
     87 H32        14.3887   18.8202   37.4983 H           1 MOL       0.2100
     88 H33        17.5961   16.8007   41.0156 H           1 MOL       0.2095
     89 H34        14.3281   12.7279   36.9502 H           1 MOL       0.0938
     90 H35        15.5022   12.2170   39.0022 H           1 MOL       0.0671
     91 H36        17.7885   11.4609   38.0885 H           1 MOL       0.0648
     92 H37        17.9916   11.6074   35.5399 H           1 MOL       0.0647
     93 H38        17.0891   13.9103   34.7011 H           1 MOL       0.0647
     94 H39        16.3701   11.6797   33.7660 H           1 MOL       0.0584
     95 H40        15.3177   13.0722   33.5021 H           1 MOL       0.0584
     96 H41        17.2817   13.2041   39.6682 H           1 MOL       0.2101
     97 H42        15.4006   10.8276   36.7770 H           1 MOL       0.2100
     98 H43        19.0735   13.5102   35.6966 H           1 MOL       0.2100
     99 H44        14.2469   11.1527   34.0403 H           1 MOL       0.2095
    100 H45         8.4585   15.7110   44.6739 H           1 MOL       0.0877
    101 H46        10.5811   16.9219   44.5649 H           1 MOL       0.0677
    102 H47         8.7558   17.8602   45.4891 H           1 MOL       0.2102
    103 H48         9.5730   18.2823   42.0048 H           1 MOL       0.0647
    104 H49        10.8314   19.6811   42.7736 H           1 MOL       0.2100
    105 H50        11.9157   16.3504   42.3080 H           1 MOL       0.0627
    106 H51         9.2128   15.8206   40.9930 H           1 MOL       0.0351
    107 H52         8.9041   14.0991   42.8383 H           1 MOL       0.0325
    108 H53        10.3971   14.6698   43.5670 H           1 MOL       0.0325
    109 H54        10.9894   14.6647   39.7561 H           1 MOL       0.0561
    110 H55         9.8853   13.5488   40.5450 H           1 MOL       0.0561
    111 H56        12.0537   12.9681   40.7162 H           1 MOL       0.2094
@<TRIPOS>BOND
     1     2     1   1
     2     1     7   1
     3    11     1   1
     4     3     2   1
     5     2     8   1
     6     4     3   1
     7     3     9   1
     8     4     5   1
     9    10     4   1
    10     5     6   1
    11     5    11   1
    12     6    12   1
    13    13    10   1
    14    14    13   1
    15    22    13   1
    16    15    14   1
    17    14    19   1
    18    16    15   1
    19    15    20   1
    20    16    17   1
    21    21    16   1
    22    17    18   1
    23    17    22   1
    24    45    21   1
    25    23    24   1
    26    23    32   1
    27    51    23   1
    28    24    25   1
    29    24    29   1
    30    25    26   1
    31    25    30   1
    32    27    26   1
    33    26    31   1
    34    27    28   1
    35    32    27   1
    36    28    33   1
    37    31    34   1
    38    34    35   1
    39    34    43   1
    40    35    36   1
    41    35    40   1
    42    36    37   1
    43    36    41   1
    44    38    37   1
    45    37    42   1
    46    38    39   1
    47    43    38   1
    48    39    44   1
    49    46    45   1
    50    45    53   1
    51    46    47   1
    52    48    46   1
    53    48    49   1
    54    50    48   1
    55    50    51   1
    56    50    52   1
    57    52    53   1
    58    52    54   1
    59    54    55   1
    60     1    56   1
    61     2    57   1
    62     3    58   1
    63     4    59   1
    64     5    60   1
    65     6    61   1
    66     6    62   1
    67     7    63   1
    68     8    64   1
    69     9    65   1
    70    12    66   1
    71    13    67   1
    72    14    68   1
    73    15    69   1
    74    16    70   1
    75    17    71   1
    76    18    72   1
    77    18    73   1
    78    18    74   1
    79    19    75   1
    80    20    76   1
    81    21    77   1
    82    21    78   1
    83    23    79   1
    84    24    80   1
    85    25    81   1
    86    26    82   1
    87    27    83   1
    88    28    84   1
    89    28    85   1
    90    29    86   1
    91    30    87   1
    92    33    88   1
    93    34    89   1
    94    35    90   1
    95    36    91   1
    96    37    92   1
    97    38    93   1
    98    39    94   1
    99    39    95   1
   100    40    96   1
   101    41    97   1
   102    42    98   1
   103    44    99   1
   104    45   100   1
   105    46   101   1
   106    47   102   1
   107    48   103   1
   108    49   104   1
   109    50   105   1
   110    52   106   1
   111    53   107   1
   112    53   108   1
   113    54   109   1
   114    54   110   1
   115    55   111   1
@<TRIPOS>SUBSTRUCTURE
     1  MOL      1

