@<TRIPOS>MOLECULE
1xd0_ligand_037
   111   115
SMALL
GAST_HUCK
****
This file was generated by PARSER (from files_GN.cpp)

@<TRIPOS>ATOM
      1 CR1         1.7011   16.4493   39.3236 C.3         1 MOL       0.1854
      2 CR2         1.3300   15.2648   40.2501 C.3         1 MOL       0.1339
      3 CR3         2.1041   15.3458   41.5970 C.3         1 MOL       0.1144
      4 CR4         3.6381   15.5358   41.3927 C.3         1 MOL       0.1184
      5 CR5         3.8692   16.7431   40.4227 C.3         1 MOL       0.1134
      6 CR6         5.3487   16.9590   40.0148 C.3         1 MOL       0.0730
      7 OR1         1.1217   17.6745   39.7758 O.3         1 MOL      -0.3649
      8 OR2        -0.0826   15.2588   40.4723 O.3         1 MOL      -0.3841
      9 OR3         1.8409   14.1650   42.3443 O.3         1 MOL      -0.3864
     10 OR4         4.2726   15.7818   42.6776 O.3         1 MOL      -0.3401
     11 OR5         3.1311   16.5677   39.1893 O.3         1 MOL      -0.3407
     12 OR6         6.0248   15.7340   39.7347 O.3         1 MOL      -0.3924
     13 CV1         4.9499   14.6635   43.3161 C.3         1 MOL       0.1886
     14 CV2         5.1872   14.9089   44.8310 C.3         1 MOL       0.1370
     15 CV3         6.3029   15.9601   45.0747 C.3         1 MOL       0.1304
     16 CV4         7.5998   15.6686   44.2537 C.3         1 MOL       0.0334
     17 CV5         7.2152   15.3966   42.7712 C.3         1 MOL       0.1038
     18 CV6         8.3706   14.9484   41.8566 C.3         1 MOL      -0.0332
     19 OV2         3.9742   15.3012   45.4771 O.3         1 MOL      -0.3840
     20 OV3         6.5869   16.0071   46.4714 O.3         1 MOL      -0.3834
     21 NV4         8.5304   16.8379   44.3128 N.4         1 MOL       0.2370
     22 OV5         6.2021   14.3782   42.6696 O.3         1 MOL      -0.3401
     23 CQ1        12.7316   16.7401   40.8088 C.3         1 MOL       0.1883
     24 CQ2        14.1397   16.3605   40.2791 C.3         1 MOL       0.1341
     25 CQ3        14.0052   15.4924   39.0041 C.3         1 MOL       0.1144
     26 CQ4        13.0749   16.1441   37.9243 C.3         1 MOL       0.1184
     27 CQ5        11.8200   16.8796   38.5248 C.3         1 MOL       0.1134
     28 CQ6        10.5511   15.9762   38.5836 C.3         1 MOL       0.0730
     29 OQ2        14.8941   17.5445   40.0063 O.3         1 MOL      -0.3841
     30 OQ3        13.5158   14.2017   39.3788 O.3         1 MOL      -0.3864
     31 OQ4        13.8971   17.0304   37.1085 O.3         1 MOL      -0.3401
     32 OQ5        12.0574   17.5380   39.8080 O.3         1 MOL      -0.3405
     33 OQ6         9.3831   16.7435   38.8719 O.3         1 MOL      -0.3924
     34 CW1        13.5472   17.2783   35.7226 C.3         1 MOL       0.1884
     35 CW2        13.4429   15.9914   34.8537 C.3         1 MOL       0.1341
     36 CW3        13.3150   16.3203   33.3373 C.3         1 MOL       0.1141
     37 CW4        14.4123   17.3022   32.8601 C.3         1 MOL       0.1119
     38 CW5        14.6490   18.5015   33.8405 C.3         1 MOL       0.1130
     39 CW6        13.8116   19.7795   33.5384 C.3         1 MOL       0.0730
     40 OW2        14.5858   15.1611   35.0887 O.3         1 MOL      -0.3841
     41 OW3        12.0028   16.7964   33.0376 O.3         1 MOL      -0.3864
     42 OW4        15.6277   16.5574   32.7059 O.3         1 MOL      -0.3865
     43 OW5        14.6158   18.1122   35.2370 O.3         1 MOL      -0.3405
     44 OW6        12.4237   19.5524   33.3442 O.3         1 MOL      -0.3924
     45 CY1         9.7687   16.8151   45.1452 C.3         1 MOL       0.0073
     46 CY2        10.5205   18.1745   44.9915 C.3         1 MOL       0.1257
     47 OY2         9.6884   19.2689   45.3603 O.3         1 MOL      -0.3835
     48 CY3        11.1314   18.3472   43.5645 C.3         1 MOL       0.1127
     49 OY3        11.7813   19.6173   43.4579 O.3         1 MOL      -0.3864
     50 CY4        12.1438   17.1995   43.2712 C.3         1 MOL       0.0953
     51 OY4        12.9098   17.4406   42.0641 O.3         1 MOL      -0.3424
     52 CY5        11.5007   15.7697   43.4604 C.3         1 MOL       0.0162
     53 CY6        10.7899   15.6685   44.8463 C.3         1 MOL       0.0002
     54 CY7        12.5246   14.6094   43.2031 C.3         1 MOL       0.0497
     55 OY7        12.7141   13.7399   44.3211 O.3         1 MOL      -0.3946
     56 H1          1.2915   16.2465   38.3318 H           1 MOL       0.0935
     57 H2          1.6001   14.3311   39.7415 H           1 MOL       0.0671
     58 H3          1.7213   16.1913   42.1733 H           1 MOL       0.0648
     59 H4          4.0421   14.6355   40.9038 H           1 MOL       0.0651
     60 H5          3.5358   17.6664   40.9119 H           1 MOL       0.0647
     61 H6          5.8736   17.4891   40.8009 H           1 MOL       0.0584
     62 H7          5.4042   17.5842   39.1222 H           1 MOL       0.0584
     63 H8          1.6688   18.3766   39.3611 H           1 MOL       0.2126
     64 H9         -0.2893   14.4073   40.9049 H           1 MOL       0.2101
     65 H10         2.0331   13.4215   41.7373 H           1 MOL       0.2100
     66 H11         5.5861   15.3793   38.9341 H           1 MOL       0.2095
     67 H12         4.3414   13.7587   43.2360 H           1 MOL       0.0938
     68 H13         5.5073   13.9709   45.2846 H           1 MOL       0.0672
     69 H14         5.9146   16.9430   44.7989 H           1 MOL       0.0679
     70 H15         8.0621   14.7641   44.6523 H           1 MOL       0.0903
     71 H16         6.8265   16.3145   42.3481 H           1 MOL       0.0652
     72 H17         7.9950   14.6107   40.8911 H           1 MOL       0.0257
     73 H18         8.9270   14.1364   42.3205 H           1 MOL       0.0257
     74 H19         9.0437   15.7777   41.6663 H           1 MOL       0.0257
     75 H20         3.4169   14.4964   45.5038 H           1 MOL       0.2101
     76 H21         7.0641   15.1711   46.6744 H           1 MOL       0.2102
     77 H22         7.9917   17.6371   44.6571 H           1 MOL       0.2022
     78 H23         8.8204   17.0636   43.3629 H           1 MOL       0.2022
     79 H24        12.1710   15.8163   40.9722 H           1 MOL       0.0938
     80 H25        14.6650   15.7924   41.0526 H           1 MOL       0.0671
     81 H26        15.0043   15.3420   38.5831 H           1 MOL       0.0648
     82 H27        12.7291   15.3084   37.3126 H           1 MOL       0.0651
     83 H28        11.5686   17.6910   37.8317 H           1 MOL       0.0647
     84 H29        10.6707   15.1946   39.3369 H           1 MOL       0.0584
     85 H30        10.4000   15.4904   37.6166 H           1 MOL       0.0584
     86 H31        15.7967   17.2213   39.7798 H           1 MOL       0.2101
     87 H32        13.5770   13.6592   38.5626 H           1 MOL       0.2100
     88 H33         9.5000   17.0590   39.7950 H           1 MOL       0.2095
     89 H34        12.6136   17.8332   35.6889 H           1 MOL       0.0938
     90 H35        12.5530   15.4262   35.1354 H           1 MOL       0.0671
     91 H36        13.4102   15.3852   32.7788 H           1 MOL       0.0648
     92 H37        14.1463   17.6708   31.8639 H           1 MOL       0.0647
     93 H38        15.6787   18.8206   33.6629 H           1 MOL       0.0647
     94 H39        14.2025   20.2670   32.6386 H           1 MOL       0.0584
     95 H40        13.9307   20.4806   34.3701 H           1 MOL       0.0584
     96 H41        14.3605   14.2995   34.6630 H           1 MOL       0.2101
     97 H42        11.9271   17.6614   33.4919 H           1 MOL       0.2100
     98 H43        16.2401   17.1468   32.2136 H           1 MOL       0.2100
     99 H44        12.0614   20.4308   33.1062 H           1 MOL       0.2095
    100 H45         9.4670   16.7220   46.1921 H           1 MOL       0.0877
    101 H46        11.3444   18.1988   45.7102 H           1 MOL       0.0677
    102 H47         9.2655   19.5703   44.5342 H           1 MOL       0.2102
    103 H48        10.3478   18.3271   42.7985 H           1 MOL       0.0647
    104 H49        11.0974   20.2250   43.1135 H           1 MOL       0.2100
    105 H50        12.9113   17.2850   44.0495 H           1 MOL       0.0627
    106 H51        10.7091   15.6743   42.7232 H           1 MOL       0.0351
    107 H52        10.2852   14.7049   44.9257 H           1 MOL       0.0325
    108 H53        11.5560   15.6735   45.6280 H           1 MOL       0.0325
    109 H54        13.5080   15.0063   42.9135 H           1 MOL       0.0561
    110 H55        12.1646   13.9824   42.3801 H           1 MOL       0.0561
    111 H56        12.8180   12.8524   43.9209 H           1 MOL       0.2094
@<TRIPOS>BOND
     1     2     1   1
     2     1     7   1
     3    11     1   1
     4     3     2   1
     5     2     8   1
     6     4     3   1
     7     3     9   1
     8     4     5   1
     9    10     4   1
    10     5     6   1
    11     5    11   1
    12     6    12   1
    13    13    10   1
    14    14    13   1
    15    22    13   1
    16    15    14   1
    17    14    19   1
    18    16    15   1
    19    15    20   1
    20    16    17   1
    21    21    16   1
    22    17    18   1
    23    17    22   1
    24    45    21   1
    25    23    24   1
    26    23    32   1
    27    51    23   1
    28    24    25   1
    29    24    29   1
    30    25    26   1
    31    25    30   1
    32    27    26   1
    33    26    31   1
    34    27    28   1
    35    32    27   1
    36    28    33   1
    37    31    34   1
    38    34    35   1
    39    34    43   1
    40    35    36   1
    41    35    40   1
    42    36    37   1
    43    36    41   1
    44    38    37   1
    45    37    42   1
    46    38    39   1
    47    43    38   1
    48    39    44   1
    49    46    45   1
    50    45    53   1
    51    46    47   1
    52    48    46   1
    53    48    49   1
    54    50    48   1
    55    50    51   1
    56    50    52   1
    57    52    53   1
    58    52    54   1
    59    54    55   1
    60     1    56   1
    61     2    57   1
    62     3    58   1
    63     4    59   1
    64     5    60   1
    65     6    61   1
    66     6    62   1
    67     7    63   1
    68     8    64   1
    69     9    65   1
    70    12    66   1
    71    13    67   1
    72    14    68   1
    73    15    69   1
    74    16    70   1
    75    17    71   1
    76    18    72   1
    77    18    73   1
    78    18    74   1
    79    19    75   1
    80    20    76   1
    81    21    77   1
    82    21    78   1
    83    23    79   1
    84    24    80   1
    85    25    81   1
    86    26    82   1
    87    27    83   1
    88    28    84   1
    89    28    85   1
    90    29    86   1
    91    30    87   1
    92    33    88   1
    93    34    89   1
    94    35    90   1
    95    36    91   1
    96    37    92   1
    97    38    93   1
    98    39    94   1
    99    39    95   1
   100    40    96   1
   101    41    97   1
   102    42    98   1
   103    44    99   1
   104    45   100   1
   105    46   101   1
   106    47   102   1
   107    48   103   1
   108    49   104   1
   109    50   105   1
   110    52   106   1
   111    53   107   1
   112    53   108   1
   113    54   109   1
   114    54   110   1
   115    55   111   1
@<TRIPOS>SUBSTRUCTURE
     1  MOL      1

