@<TRIPOS>MOLECULE
1xd0_ligand_046
   111   115
SMALL
GAST_HUCK
****
This file was generated by PARSER (from files_GN.cpp)

@<TRIPOS>ATOM
      1 CR1         1.6490   15.7395   41.6676 C.3         1 MOL       0.1854
      2 CR2         2.5506   16.8759   41.1178 C.3         1 MOL       0.1339
      3 CR3         3.9271   16.3134   40.6523 C.3         1 MOL       0.1144
      4 CR4         4.6074   15.4346   41.7454 C.3         1 MOL       0.1184
      5 CR5         3.5807   14.3772   42.2787 C.3         1 MOL       0.1134
      6 CR6         4.0644   13.5479   43.4939 C.3         1 MOL       0.0730
      7 OR1         1.1949   14.8591   40.6339 O.3         1 MOL      -0.3649
      8 OR2         1.8581   17.5288   40.0517 O.3         1 MOL      -0.3841
      9 OR3         4.7882   17.3881   40.2862 O.3         1 MOL      -0.3864
     10 OR4         5.7132   14.7183   41.1586 O.3         1 MOL      -0.3401
     11 OR5         2.3398   14.9913   42.6883 O.3         1 MOL      -0.3407
     12 OR6         4.4934   14.3755   44.5713 O.3         1 MOL      -0.3924
     13 CV1         7.1033   14.9582   41.4700 C.3         1 MOL       0.1886
     14 CV2         7.5555   14.5234   42.9015 C.3         1 MOL       0.1370
     15 CV3         7.7437   15.7266   43.8607 C.3         1 MOL       0.1304
     16 CV4         8.6942   16.7645   43.1946 C.3         1 MOL       0.0334
     17 CV5         7.9293   17.3004   41.9382 C.3         1 MOL       0.1038
     18 CV6         8.7379   18.3154   41.0938 C.3         1 MOL      -0.0332
     19 OV2         6.6389   13.5964   43.4860 O.3         1 MOL      -0.3840
     20 OV3         8.2283   15.2598   45.1179 O.3         1 MOL      -0.3834
     21 NV4         9.1515   17.8178   44.1503 N.4         1 MOL       0.2370
     22 OV5         7.6209   16.2294   41.0131 O.3         1 MOL      -0.3401
     23 CQ1        13.9892   17.4653   40.6675 C.3         1 MOL       0.1883
     24 CQ2        13.4779   18.1866   39.3762 C.3         1 MOL       0.1341
     25 CQ3        13.9360   17.4471   38.0877 C.3         1 MOL       0.1144
     26 CQ4        13.6109   15.9269   38.1494 C.3         1 MOL       0.1184
     27 CQ5        14.0318   15.3024   39.5286 C.3         1 MOL       0.1134
     28 CQ6        14.9304   14.0483   39.3855 C.3         1 MOL       0.0730
     29 OQ2        12.0523   18.3035   39.3769 O.3         1 MOL      -0.3841
     30 OQ3        15.3409   17.6298   37.9156 O.3         1 MOL      -0.3864
     31 OQ4        12.1852   15.7724   37.9587 O.3         1 MOL      -0.3401
     32 OQ5        14.7238   16.2539   40.3774 O.3         1 MOL      -0.3405
     33 OQ6        16.3138   14.3655   39.5101 O.3         1 MOL      -0.3924
     34 CW1        11.6821   15.0433   36.8163 C.3         1 MOL       0.1884
     35 CW2        11.8600   15.7705   35.4495 C.3         1 MOL       0.1341
     36 CW3        11.0108   17.0682   35.4174 C.3         1 MOL       0.1141
     37 CW4         9.5265   16.7670   35.7497 C.3         1 MOL       0.1119
     38 CW5         9.4018   15.9346   37.0648 C.3         1 MOL       0.1130
     39 CW6         7.9638   15.4115   37.2977 C.3         1 MOL       0.0730
     40 OW2        13.2238   16.0729   35.1593 O.3         1 MOL      -0.3841
     41 OW3        11.0967   17.6872   34.1331 O.3         1 MOL      -0.3864
     42 OW4         8.8032   17.9956   35.8492 O.3         1 MOL      -0.3865
     43 OW5        10.2776   14.7809   37.0262 O.3         1 MOL      -0.3405
     44 OW6         7.0982   16.4423   37.7651 O.3         1 MOL      -0.3924
     45 CY1        10.4868   17.7766   44.8612 C.3         1 MOL       0.0073
     46 CY2        11.3957   18.9726   44.4440 C.3         1 MOL       0.1257
     47 OY2        10.6615   20.1923   44.5659 O.3         1 MOL      -0.3835
     48 CY3        11.9719   18.7510   43.0177 C.3         1 MOL       0.1127
     49 OY3        12.7758   19.8667   42.6262 O.3         1 MOL      -0.3864
     50 CY4        12.8250   17.4467   42.9090 C.3         1 MOL       0.0953
     51 OY4        12.8915   17.0859   41.5143 O.3         1 MOL      -0.3424
     52 CY5        12.2452   16.1766   43.6297 C.3         1 MOL       0.0162
     53 CY6        11.3937   16.4985   44.9024 C.3         1 MOL       0.0002
     54 CY7        13.3573   15.1277   43.9450 C.3         1 MOL       0.0497
     55 OY7        14.4123   15.6552   44.7516 O.3         1 MOL      -0.3946
     56 H1          0.7615   16.1825   42.1323 H           1 MOL       0.0935
     57 H2          2.7151   17.6037   41.9193 H           1 MOL       0.0671
     58 H3          3.7674   15.7044   39.7560 H           1 MOL       0.0648
     59 H4          4.9315   16.0648   42.5763 H           1 MOL       0.0651
     60 H5          3.3627   13.6581   41.4771 H           1 MOL       0.0647
     61 H6          4.8882   12.8954   43.1986 H           1 MOL       0.0584
     62 H7          3.2462   12.9169   43.8590 H           1 MOL       0.0584
     63 H8          0.5908   15.3960   40.0792 H           1 MOL       0.2126
     64 H9          2.4786   18.1993   39.7055 H           1 MOL       0.2101
     65 H10         4.6242   17.5441   39.3332 H           1 MOL       0.2100
     66 H11         3.8425   15.1113   44.6073 H           1 MOL       0.2095
     67 H12         7.5982   14.2570   40.7943 H           1 MOL       0.0938
     68 H13         8.5331   14.0335   42.8136 H           1 MOL       0.0672
     69 H14         6.7787   16.1979   44.0622 H           1 MOL       0.0679
     70 H15         9.5731   16.2584   42.8083 H           1 MOL       0.0903
     71 H16         6.9982   17.7902   42.2455 H           1 MOL       0.0652
     72 H17         8.1595   18.6186   40.2201 H           1 MOL       0.0257
     73 H18         9.6706   17.8686   40.7429 H           1 MOL       0.0257
     74 H19         8.9692   19.2121   41.6644 H           1 MOL       0.0257
     75 H20         7.0530   12.7189   43.3395 H           1 MOL       0.2101
     76 H21         7.4763   14.7854   45.5285 H           1 MOL       0.2102
     77 H22         8.4382   17.8738   44.8851 H           1 MOL       0.2022
     78 H23         9.1161   18.7130   43.6602 H           1 MOL       0.2022
     79 H24        14.6797   18.1352   41.1871 H           1 MOL       0.0938
     80 H25        13.8725   19.2071   39.3522 H           1 MOL       0.0671
     81 H26        13.4497   17.9006   37.2195 H           1 MOL       0.0648
     82 H27        14.1687   15.4426   37.3440 H           1 MOL       0.0651
     83 H28        13.1320   14.9692   40.0568 H           1 MOL       0.0647
     84 H29        14.7654   13.5835   38.4111 H           1 MOL       0.0584
     85 H30        14.6730   13.3189   40.1570 H           1 MOL       0.0584
     86 H31        11.8346   18.8908   38.6232 H           1 MOL       0.2101
     87 H32        15.5047   17.5095   36.9557 H           1 MOL       0.2100
     88 H33        16.4877   14.3691   40.4740 H           1 MOL       0.2095
     89 H34        12.1711   14.0668   36.7682 H           1 MOL       0.0938
     90 H35        11.5051   15.1026   34.6580 H           1 MOL       0.0671
     91 H36        11.4013   17.7746   36.1543 H           1 MOL       0.0648
     92 H37         9.0960   16.1933   34.9230 H           1 MOL       0.0647
     93 H38         9.6745   16.5640   37.9191 H           1 MOL       0.0647
     94 H39         7.9795   14.6166   38.0450 H           1 MOL       0.0584
     95 H40         7.5589   15.0012   36.3699 H           1 MOL       0.0584
     96 H41        13.6690   15.2040   35.0685 H           1 MOL       0.2101
     97 H42        11.9801   18.1114   34.1079 H           1 MOL       0.2100
     98 H43         9.2576   18.5099   36.5492 H           1 MOL       0.2100
     99 H44         6.2235   16.0130   37.8674 H           1 MOL       0.2095
    100 H45        10.2167   17.9658   45.9069 H           1 MOL       0.0877
    101 H46        12.2343   19.0540   45.1467 H           1 MOL       0.0677
    102 H47        11.2892   20.9029   44.3220 H           1 MOL       0.2102
    103 H48        11.1385   18.6962   42.3188 H           1 MOL       0.0647
    104 H49        12.1464   20.5643   42.3466 H           1 MOL       0.2100
    105 H50        13.8198   17.6587   43.3196 H           1 MOL       0.0627
    106 H51        11.5869   15.6627   42.9233 H           1 MOL       0.0351
    107 H52        10.8036   15.6226   45.1558 H           1 MOL       0.0325
    108 H53        12.0923   16.6338   45.7338 H           1 MOL       0.0325
    109 H54        13.7953   14.7577   43.0137 H           1 MOL       0.0561
    110 H55        12.9188   14.2747   44.4710 H           1 MOL       0.0561
    111 H56        14.9778   14.8831   44.9672 H           1 MOL       0.2094
@<TRIPOS>BOND
     1     2     1   1
     2     1     7   1
     3    11     1   1
     4     3     2   1
     5     2     8   1
     6     4     3   1
     7     3     9   1
     8     4     5   1
     9    10     4   1
    10     5     6   1
    11     5    11   1
    12     6    12   1
    13    13    10   1
    14    14    13   1
    15    22    13   1
    16    15    14   1
    17    14    19   1
    18    16    15   1
    19    15    20   1
    20    16    17   1
    21    21    16   1
    22    17    18   1
    23    17    22   1
    24    45    21   1
    25    23    24   1
    26    23    32   1
    27    51    23   1
    28    24    25   1
    29    24    29   1
    30    25    26   1
    31    25    30   1
    32    27    26   1
    33    26    31   1
    34    27    28   1
    35    32    27   1
    36    28    33   1
    37    31    34   1
    38    34    35   1
    39    34    43   1
    40    35    36   1
    41    35    40   1
    42    36    37   1
    43    36    41   1
    44    38    37   1
    45    37    42   1
    46    38    39   1
    47    43    38   1
    48    39    44   1
    49    46    45   1
    50    45    53   1
    51    46    47   1
    52    48    46   1
    53    48    49   1
    54    50    48   1
    55    50    51   1
    56    50    52   1
    57    52    53   1
    58    52    54   1
    59    54    55   1
    60     1    56   1
    61     2    57   1
    62     3    58   1
    63     4    59   1
    64     5    60   1
    65     6    61   1
    66     6    62   1
    67     7    63   1
    68     8    64   1
    69     9    65   1
    70    12    66   1
    71    13    67   1
    72    14    68   1
    73    15    69   1
    74    16    70   1
    75    17    71   1
    76    18    72   1
    77    18    73   1
    78    18    74   1
    79    19    75   1
    80    20    76   1
    81    21    77   1
    82    21    78   1
    83    23    79   1
    84    24    80   1
    85    25    81   1
    86    26    82   1
    87    27    83   1
    88    28    84   1
    89    28    85   1
    90    29    86   1
    91    30    87   1
    92    33    88   1
    93    34    89   1
    94    35    90   1
    95    36    91   1
    96    37    92   1
    97    38    93   1
    98    39    94   1
    99    39    95   1
   100    40    96   1
   101    41    97   1
   102    42    98   1
   103    44    99   1
   104    45   100   1
   105    46   101   1
   106    47   102   1
   107    48   103   1
   108    49   104   1
   109    50   105   1
   110    52   106   1
   111    53   107   1
   112    53   108   1
   113    54   109   1
   114    54   110   1
   115    55   111   1
@<TRIPOS>SUBSTRUCTURE
     1  MOL      1

