@<TRIPOS>MOLECULE
1xd0_ligand_079
   111   115
SMALL
GAST_HUCK
****
This file was generated by PARSER (from files_GN.cpp)

@<TRIPOS>ATOM
      1 CR1        10.2541   17.1472   45.2254 C.3         1 MOL       0.1854
      2 CR2        10.9456   18.5078   44.9685 C.3         1 MOL       0.1339
      3 CR3        11.4982   18.5635   43.5199 C.3         1 MOL       0.1144
      4 CR4        12.4254   17.3471   43.2165 C.3         1 MOL       0.1184
      5 CR5        11.7208   16.0097   43.6171 C.3         1 MOL       0.1134
      6 CR6        12.6703   14.7829   43.5576 C.3         1 MOL       0.0730
      7 OR1         9.0409   17.0024   44.4832 O.3         1 MOL      -0.3649
      8 OR2        10.0548   19.5879   45.2390 O.3         1 MOL      -0.3841
      9 OR3        12.1975   19.7935   43.3398 O.3         1 MOL      -0.3864
     10 OR4        12.7171   17.2990   41.8025 O.3         1 MOL      -0.3401
     11 OR5        11.1686   16.0645   44.9531 O.3         1 MOL      -0.3407
     12 OR6        14.0406   15.1793   43.5239 O.3         1 MOL      -0.3924
     13 CV1        13.7359   18.1853   41.2768 C.3         1 MOL       0.1886
     14 CV2        13.3652   18.6488   39.8464 C.3         1 MOL       0.1370
     15 CV3        13.5319   17.5022   38.8172 C.3         1 MOL       0.1304
     16 CV4        14.9006   16.7740   38.9538 C.3         1 MOL       0.0334
     17 CV5        15.1987   16.4020   40.4457 C.3         1 MOL       0.1038
     18 CV6        16.6480   15.9172   40.6877 C.3         1 MOL      -0.0332
     19 OV2        12.0175   19.1206   39.8463 O.3         1 MOL      -0.3840
     20 OV3        13.3899   18.0254   37.4941 O.3         1 MOL      -0.3834
     21 NV4        15.0424   15.6374   37.9986 N.4         1 MOL       0.2370
     22 OV5        15.0262   17.5504   41.3085 O.3         1 MOL      -0.3401
     23 CQ1        13.9650   12.5373   32.7642 C.3         1 MOL       0.1883
     24 CQ2        13.4663   11.0982   33.1362 C.3         1 MOL       0.1341
     25 CQ3        13.9762   10.0376   32.1157 C.3         1 MOL       0.1144
     26 CQ4        15.5232   10.1180   31.9712 C.3         1 MOL       0.1184
     27 CQ5        16.0184   11.6020   31.8152 C.3         1 MOL       0.1134
     28 CQ6        16.9454   11.7796   30.5858 C.3         1 MOL       0.0730
     29 OQ2        13.8785   10.7244   34.4599 O.3         1 MOL      -0.3841
     30 OQ3        13.3297   10.2004   30.8479 O.3         1 MOL      -0.3864
     31 OQ4        16.0546    9.5448   33.1787 O.3         1 MOL      -0.3401
     32 OQ5        14.9125   12.5290   31.6741 O.3         1 MOL      -0.3405
     33 OQ6        17.3826   13.1317   30.4467 O.3         1 MOL      -0.3924
     34 CW1        17.2441    8.7280   33.1652 C.3         1 MOL       0.1884
     35 CW2        16.8324    7.3138   33.6578 C.3         1 MOL       0.1341
     36 CW3        16.3259    7.3802   35.1274 C.3         1 MOL       0.1141
     37 CW4        17.3668    8.0851   36.0446 C.3         1 MOL       0.1119
     38 CW5        17.8737    9.4314   35.4278 C.3         1 MOL       0.1130
     39 CW6        19.0702   10.0258   36.2226 C.3         1 MOL       0.0730
     40 OW2        15.8258    6.7653   32.8003 O.3         1 MOL      -0.3841
     41 OW3        16.0559    6.0543   35.5865 O.3         1 MOL      -0.3864
     42 OW4        16.7978    8.3195   37.3377 O.3         1 MOL      -0.3865
     43 OW5        18.2585    9.2784   34.0368 O.3         1 MOL      -0.3405
     44 OW6        20.0807    9.0573   36.4976 O.3         1 MOL      -0.3924
     45 CY1        14.0045   14.5596   37.9477 C.3         1 MOL       0.0073
     46 CY2        14.6445   13.1908   37.5991 C.3         1 MOL       0.1257
     47 OY2        15.7159   12.8790   38.4864 O.3         1 MOL      -0.3835
     48 CY3        15.1320   13.1366   36.1272 C.3         1 MOL       0.1127
     49 OY3        15.7238   11.8499   35.8803 O.3         1 MOL      -0.3864
     50 CY4        13.9624   13.4189   35.1309 C.3         1 MOL       0.0953
     51 OY4        14.5624   13.3261   33.8194 O.3         1 MOL      -0.3424
     52 CY5        13.3103   14.8144   35.4365 C.3         1 MOL       0.0162
     53 CY6        12.8606   14.8668   36.9356 C.3         1 MOL       0.0002
     54 CY7        12.1106   15.1896   34.5181 C.3         1 MOL       0.0497
     55 OY7        11.0444   14.2424   34.5768 O.3         1 MOL      -0.3946
     56 H1          9.9877   17.0876   46.2843 H           1 MOL       0.0935
     57 H2         11.7823   18.6089   45.6635 H           1 MOL       0.0671
     58 H3         10.6630   18.5519   42.8122 H           1 MOL       0.0648
     59 H4         13.3452   17.4485   43.8055 H           1 MOL       0.0651
     60 H5         10.9007   15.8160   42.9194 H           1 MOL       0.0647
     61 H6         12.4539   14.1770   42.6747 H           1 MOL       0.0584
     62 H7         12.5138   14.1577   44.4391 H           1 MOL       0.0584
     63 H8          8.3353   17.3716   45.0616 H           1 MOL       0.2126
     64 H9          9.7290   19.8858   44.3650 H           1 MOL       0.2101
     65 H10        11.5343   20.4079   42.9692 H           1 MOL       0.2100
     66 H11        14.5175   14.5573   44.1153 H           1 MOL       0.2095
     67 H12        13.8393   19.0897   41.8816 H           1 MOL       0.0938
     68 H13        14.0204   19.4753   39.5583 H           1 MOL       0.0672
     69 H14        12.7216   16.7904   38.9891 H           1 MOL       0.0679
     70 H15        15.6684   17.4914   38.6562 H           1 MOL       0.0903
     71 H16        14.5239   15.6064   40.7698 H           1 MOL       0.0652
     72 H17        16.7949   15.6981   41.7499 H           1 MOL       0.0257
     73 H18        17.3576   16.6883   40.3887 H           1 MOL       0.0257
     74 H19        16.8562   15.0101   40.1233 H           1 MOL       0.0257
     75 H20        11.7910   19.2904   38.9085 H           1 MOL       0.2101
     76 H21        14.0514   18.7478   37.4269 H           1 MOL       0.2102
     77 H22        15.9387   15.1911   38.2020 H           1 MOL       0.2022
     78 H23        15.1204   16.0404   37.0626 H           1 MOL       0.2022
     79 H24        13.1111   13.0828   32.3738 H           1 MOL       0.0938
     80 H25        12.3672   11.0861   33.1268 H           1 MOL       0.0671
     81 H26        13.6996    9.0414   32.4755 H           1 MOL       0.0648
     82 H27        15.7917    9.4976   31.1056 H           1 MOL       0.0651
     83 H28        16.6056   11.8925   32.6977 H           1 MOL       0.0647
     84 H29        16.4045   11.5012   29.6759 H           1 MOL       0.0584
     85 H30        17.8218   11.1323   30.6839 H           1 MOL       0.0584
     86 H31        13.3165    9.9415   34.6856 H           1 MOL       0.2101
     87 H32        13.6183   11.0727   30.5090 H           1 MOL       0.2100
     88 H33        17.9435   13.3060   31.2329 H           1 MOL       0.2095
     89 H34        17.6821    8.6369   32.1665 H           1 MOL       0.0938
     90 H35        17.7068    6.6568   33.6069 H           1 MOL       0.0671
     91 H36        15.3845    7.9406   35.1586 H           1 MOL       0.0648
     92 H37        18.2127    7.4040   36.1697 H           1 MOL       0.0647
     93 H38        17.0548   10.1656   35.4802 H           1 MOL       0.0647
     94 H39        18.7212   10.4391   37.1715 H           1 MOL       0.0584
     95 H40        19.5166   10.8424   35.6478 H           1 MOL       0.0584
     96 H41        15.0583    7.3731   32.8766 H           1 MOL       0.2101
     97 H42        15.9407    6.1460   36.5553 H           1 MOL       0.2100
     98 H43        16.0232    8.9045   37.1864 H           1 MOL       0.2100
     99 H44        20.7454    9.1781   35.7865 H           1 MOL       0.2095
    100 H45        13.5438   14.4487   38.9322 H           1 MOL       0.0877
    101 H46        13.8914   12.4164   37.7269 H           1 MOL       0.0677
    102 H47        15.3164   12.8638   39.3845 H           1 MOL       0.2102
    103 H48        15.9178   13.8830   35.9802 H           1 MOL       0.0647
    104 H49        15.3339   11.2425   36.5418 H           1 MOL       0.2100
    105 H50        13.2041   12.6324   35.2597 H           1 MOL       0.0627
    106 H51        14.0748   15.5826   35.2764 H           1 MOL       0.0351
    107 H52        12.4319   15.8491   37.1447 H           1 MOL       0.0325
    108 H53        12.0562   14.1398   37.0942 H           1 MOL       0.0325
    109 H54        12.4378   15.2936   33.4836 H           1 MOL       0.0561
    110 H55        11.7010   16.1556   34.8174 H           1 MOL       0.0561
    111 H56        11.3390   13.4636   34.0618 H           1 MOL       0.2094
@<TRIPOS>BOND
     1     2     1   1
     2     1     7   1
     3    11     1   1
     4     3     2   1
     5     2     8   1
     6     4     3   1
     7     3     9   1
     8     4     5   1
     9    10     4   1
    10     5     6   1
    11     5    11   1
    12     6    12   1
    13    13    10   1
    14    14    13   1
    15    22    13   1
    16    15    14   1
    17    14    19   1
    18    16    15   1
    19    15    20   1
    20    16    17   1
    21    21    16   1
    22    17    18   1
    23    17    22   1
    24    45    21   1
    25    23    24   1
    26    23    32   1
    27    51    23   1
    28    24    25   1
    29    24    29   1
    30    25    26   1
    31    25    30   1
    32    27    26   1
    33    26    31   1
    34    27    28   1
    35    32    27   1
    36    28    33   1
    37    31    34   1
    38    34    35   1
    39    34    43   1
    40    35    36   1
    41    35    40   1
    42    36    37   1
    43    36    41   1
    44    38    37   1
    45    37    42   1
    46    38    39   1
    47    43    38   1
    48    39    44   1
    49    46    45   1
    50    45    53   1
    51    46    47   1
    52    48    46   1
    53    48    49   1
    54    50    48   1
    55    50    51   1
    56    50    52   1
    57    52    53   1
    58    52    54   1
    59    54    55   1
    60     1    56   1
    61     2    57   1
    62     3    58   1
    63     4    59   1
    64     5    60   1
    65     6    61   1
    66     6    62   1
    67     7    63   1
    68     8    64   1
    69     9    65   1
    70    12    66   1
    71    13    67   1
    72    14    68   1
    73    15    69   1
    74    16    70   1
    75    17    71   1
    76    18    72   1
    77    18    73   1
    78    18    74   1
    79    19    75   1
    80    20    76   1
    81    21    77   1
    82    21    78   1
    83    23    79   1
    84    24    80   1
    85    25    81   1
    86    26    82   1
    87    27    83   1
    88    28    84   1
    89    28    85   1
    90    29    86   1
    91    30    87   1
    92    33    88   1
    93    34    89   1
    94    35    90   1
    95    36    91   1
    96    37    92   1
    97    38    93   1
    98    39    94   1
    99    39    95   1
   100    40    96   1
   101    41    97   1
   102    42    98   1
   103    44    99   1
   104    45   100   1
   105    46   101   1
   106    47   102   1
   107    48   103   1
   108    49   104   1
   109    50   105   1
   110    52   106   1
   111    53   107   1
   112    53   108   1
   113    54   109   1
   114    54   110   1
   115    55   111   1
@<TRIPOS>SUBSTRUCTURE
     1  MOL      1

