@<TRIPOS>MOLECULE
1xd0_ligand_076
   111   115
SMALL
GAST_HUCK
****
This file was generated by PARSER (from files_GN.cpp)

@<TRIPOS>ATOM
      1 CR1        11.7658   16.6822   38.3915 C.3         1 MOL       0.1854
      2 CR2        13.1979   16.8288   38.9581 C.3         1 MOL       0.1339
      3 CR3        13.2740   18.0173   39.9532 C.3         1 MOL       0.1144
      4 CR4        12.1405   17.9785   41.0253 C.3         1 MOL       0.1184
      5 CR5        10.7425   17.6267   40.4100 C.3         1 MOL       0.1134
      6 CR6         9.9710   18.8539   39.8473 C.3         1 MOL       0.0730
      7 OR1        11.6623   15.5274   37.5651 O.3         1 MOL      -0.3649
      8 OR2        13.6041   15.6171   39.5927 O.3         1 MOL      -0.3841
      9 OR3        13.2208   19.2561   39.2419 O.3         1 MOL      -0.3864
     10 OR4        12.4483   16.9795   42.0222 O.3         1 MOL      -0.3401
     11 OR5        10.8124   16.5409   39.4595 O.3         1 MOL      -0.3407
     12 OR6         8.9478   18.4666   38.9340 O.3         1 MOL      -0.3924
     13 CV1        13.0439   17.3936   43.2762 C.3         1 MOL       0.1886
     14 CV2        13.1220   16.1974   44.2557 C.3         1 MOL       0.1370
     15 CV3        11.6874   15.6507   44.5026 C.3         1 MOL       0.1304
     16 CV4        10.6389   16.7497   44.9114 C.3         1 MOL       0.0334
     17 CV5        10.9217   18.1427   44.2239 C.3         1 MOL       0.1038
     18 CV6        10.4111   19.3423   45.0524 C.3         1 MOL      -0.0332
     19 OV2        13.9695   15.1857   43.7026 O.3         1 MOL      -0.3840
     20 OV3        11.7538   14.6029   45.4719 O.3         1 MOL      -0.3834
     21 NV4         9.1808   16.4518   44.6593 N.4         1 MOL       0.2370
     22 OV5        12.3161   18.4230   43.9656 O.3         1 MOL      -0.3401
     23 CQ1         4.4676   15.9497   41.3616 C.3         1 MOL       0.1883
     24 CQ2         3.4407   17.0289   40.9341 C.3         1 MOL       0.1341
     25 CQ3         3.1036   16.8340   39.4311 C.3         1 MOL       0.1144
     26 CQ4         2.6389   15.3802   39.1005 C.3         1 MOL       0.1184
     27 CQ5         3.4552   14.2731   39.8638 C.3         1 MOL       0.1134
     28 CQ6         4.6356   13.6711   39.0514 C.3         1 MOL       0.0730
     29 OQ2         2.2678   16.9174   41.7399 O.3         1 MOL      -0.3841
     30 OQ3         4.2430   17.1837   38.6398 O.3         1 MOL      -0.3864
     31 OQ4         1.2354   15.3081   39.4432 O.3         1 MOL      -0.3401
     32 OQ5         3.8819   14.6369   41.1989 O.3         1 MOL      -0.3405
     33 OQ6         5.0934   14.5105   37.9930 O.3         1 MOL      -0.3924
     34 CW1         0.2615   14.9592   38.4254 C.3         1 MOL       0.1884
     35 CW2         0.0723   15.9870   37.2657 C.3         1 MOL       0.1341
     36 CW3        -0.5315   17.3138   37.7963 C.3         1 MOL       0.1141
     37 CW4        -1.8432   17.0468   38.5890 C.3         1 MOL       0.1119
     38 CW5        -1.6054   15.9554   39.6781 C.3         1 MOL       0.1130
     39 CW6        -2.9150   15.5533   40.4168 C.3         1 MOL       0.0730
     40 OW2         1.2899   16.2489   36.5655 O.3         1 MOL      -0.3841
     41 OW3        -0.7863   18.1973   36.7018 O.3         1 MOL      -0.3864
     42 OW4        -2.2870   18.2700   39.1829 O.3         1 MOL      -0.3865
     43 OW5        -1.0062   14.7679   39.0894 O.3         1 MOL      -0.3405
     44 OW6        -3.3751   14.2605   40.0308 O.3         1 MOL      -0.3924
     45 CY1         8.5895   15.0803   44.7421 C.3         1 MOL       0.0073
     46 CY2         8.3079   14.4221   43.3516 C.3         1 MOL       0.1257
     47 OY2         9.4676   14.4299   42.5221 O.3         1 MOL      -0.3835
     48 CY3         7.1539   15.1090   42.5662 C.3         1 MOL       0.1127
     49 OY3         6.9236   14.3307   41.3829 O.3         1 MOL      -0.3864
     50 CY4         5.8195   15.2558   43.3675 C.3         1 MOL       0.0953
     51 OY4         4.8674   16.1655   42.7322 O.3         1 MOL      -0.3424
     52 CY5         6.0788   15.8248   44.8124 C.3         1 MOL       0.0162
     53 CY6         7.2582   15.1003   45.5502 C.3         1 MOL       0.0002
     54 CY7         4.7913   15.8006   45.6932 C.3         1 MOL       0.0497
     55 OY7         4.6598   14.6046   46.4672 O.3         1 MOL      -0.3946
     56 H1         11.5091   17.5453   37.7735 H           1 MOL       0.0935
     57 H2         13.8913   17.0038   38.1329 H           1 MOL       0.0671
     58 H3         14.2443   17.9971   40.4558 H           1 MOL       0.0648
     59 H4         12.0752   18.9667   41.4932 H           1 MOL       0.0651
     60 H5         10.1119   17.2471   41.2169 H           1 MOL       0.0647
     61 H6         10.6477   19.5366   39.3399 H           1 MOL       0.0584
     62 H7          9.4954   19.3972   40.6659 H           1 MOL       0.0584
     63 H8         12.2182   15.7218   36.7792 H           1 MOL       0.2126
     64 H9         12.9680   15.4665   40.3227 H           1 MOL       0.2101
     65 H10        13.9119   19.1958   38.5457 H           1 MOL       0.2100
     66 H11         9.3515   17.7872   38.3534 H           1 MOL       0.2095
     67 H12        14.0540   17.7629   43.0948 H           1 MOL       0.0938
     68 H13        13.5636   16.5310   45.2065 H           1 MOL       0.0672
     69 H14        11.3764   15.1977   43.5720 H           1 MOL       0.0679
     70 H15        10.7361   16.8788   45.9913 H           1 MOL       0.0903
     71 H16        10.4018   18.1802   43.2589 H           1 MOL       0.0652
     72 H17        10.5899   20.2736   44.5134 H           1 MOL       0.0257
     73 H18        10.9484   19.3838   45.9991 H           1 MOL       0.0257
     74 H19         9.3440   19.2457   45.2422 H           1 MOL       0.0257
     75 H20        14.3276   14.6866   44.4714 H           1 MOL       0.2101
     76 H21        12.2022   14.9855   46.2513 H           1 MOL       0.2102
     77 H22         8.9552   16.7924   43.7202 H           1 MOL       0.2022
     78 H23         8.6516   17.0429   45.3243 H           1 MOL       0.2022
     79 H24         5.3525   16.0741   40.7293 H           1 MOL       0.0938
     80 H25         3.8706   18.0229   41.0876 H           1 MOL       0.0671
     81 H26         2.3086   17.5361   39.1568 H           1 MOL       0.0648
     82 H27         2.7812   15.2113   38.0273 H           1 MOL       0.0651
     83 H28         2.7760   13.4315   40.0261 H           1 MOL       0.0647
     84 H29         4.3380   12.7055   38.6238 H           1 MOL       0.0584
     85 H30         5.4775   13.4936   39.7261 H           1 MOL       0.0584
     86 H31         1.6548   17.5939   41.3949 H           1 MOL       0.2101
     87 H32         3.9079   17.2510   37.7167 H           1 MOL       0.2100
     88 H33         5.8271   14.0057   37.5758 H           1 MOL       0.2095
     89 H34         0.5239   13.9884   37.9942 H           1 MOL       0.0938
     90 H35        -0.6304   15.5526   36.5430 H           1 MOL       0.0671
     91 H36         0.1981   17.7927   38.4609 H           1 MOL       0.0648
     92 H37        -2.6194   16.7040   37.8990 H           1 MOL       0.0647
     93 H38        -0.9217   16.3715   40.4314 H           1 MOL       0.0647
     94 H39        -3.7098   16.2746   40.2169 H           1 MOL       0.0584
     95 H40        -2.7383   15.5462   41.4954 H           1 MOL       0.0584
     96 H41         1.0227   16.7375   35.7572 H           1 MOL       0.2101
     97 H42        -1.0146   19.0598   37.1163 H           1 MOL       0.2100
     98 H43        -1.5210   18.5867   39.7120 H           1 MOL       0.2100
     99 H44        -2.8091   13.6499   40.5534 H           1 MOL       0.2095
    100 H45         9.2668   14.4263   45.2890 H           1 MOL       0.0877
    101 H46         8.0162   13.3748   43.5262 H           1 MOL       0.0677
    102 H47         9.1612   14.1186   41.6474 H           1 MOL       0.2102
    103 H48         7.4741   16.1022   42.2498 H           1 MOL       0.0647
    104 H49         6.5497   13.4578   41.6766 H           1 MOL       0.2100
    105 H50         5.3658   14.2569   43.4659 H           1 MOL       0.0627
    106 H51         6.3759   16.8761   44.6983 H           1 MOL       0.0351
    107 H52         7.4410   15.5809   46.5221 H           1 MOL       0.0325
    108 H53         6.9654   14.0640   45.7565 H           1 MOL       0.0325
    109 H54         3.9049   15.8937   45.0606 H           1 MOL       0.0561
    110 H55         4.8091   16.6529   46.3794 H           1 MOL       0.0561
    111 H56         4.4011   13.9140   45.8170 H           1 MOL       0.2094
@<TRIPOS>BOND
     1     2     1   1
     2     1     7   1
     3    11     1   1
     4     3     2   1
     5     2     8   1
     6     4     3   1
     7     3     9   1
     8     4     5   1
     9    10     4   1
    10     5     6   1
    11     5    11   1
    12     6    12   1
    13    13    10   1
    14    14    13   1
    15    22    13   1
    16    15    14   1
    17    14    19   1
    18    16    15   1
    19    15    20   1
    20    16    17   1
    21    21    16   1
    22    17    18   1
    23    17    22   1
    24    45    21   1
    25    23    24   1
    26    23    32   1
    27    51    23   1
    28    24    25   1
    29    24    29   1
    30    25    26   1
    31    25    30   1
    32    27    26   1
    33    26    31   1
    34    27    28   1
    35    32    27   1
    36    28    33   1
    37    31    34   1
    38    34    35   1
    39    34    43   1
    40    35    36   1
    41    35    40   1
    42    36    37   1
    43    36    41   1
    44    38    37   1
    45    37    42   1
    46    38    39   1
    47    43    38   1
    48    39    44   1
    49    46    45   1
    50    45    53   1
    51    46    47   1
    52    48    46   1
    53    48    49   1
    54    50    48   1
    55    50    51   1
    56    50    52   1
    57    52    53   1
    58    52    54   1
    59    54    55   1
    60     1    56   1
    61     2    57   1
    62     3    58   1
    63     4    59   1
    64     5    60   1
    65     6    61   1
    66     6    62   1
    67     7    63   1
    68     8    64   1
    69     9    65   1
    70    12    66   1
    71    13    67   1
    72    14    68   1
    73    15    69   1
    74    16    70   1
    75    17    71   1
    76    18    72   1
    77    18    73   1
    78    18    74   1
    79    19    75   1
    80    20    76   1
    81    21    77   1
    82    21    78   1
    83    23    79   1
    84    24    80   1
    85    25    81   1
    86    26    82   1
    87    27    83   1
    88    28    84   1
    89    28    85   1
    90    29    86   1
    91    30    87   1
    92    33    88   1
    93    34    89   1
    94    35    90   1
    95    36    91   1
    96    37    92   1
    97    38    93   1
    98    39    94   1
    99    39    95   1
   100    40    96   1
   101    41    97   1
   102    42    98   1
   103    44    99   1
   104    45   100   1
   105    46   101   1
   106    47   102   1
   107    48   103   1
   108    49   104   1
   109    50   105   1
   110    52   106   1
   111    53   107   1
   112    53   108   1
   113    54   109   1
   114    54   110   1
   115    55   111   1
@<TRIPOS>SUBSTRUCTURE
     1  MOL      1

