@<TRIPOS>MOLECULE
1xd0_ligand_026
   111   115
SMALL
GAST_HUCK
****
This file was generated by PARSER (from files_GN.cpp)

@<TRIPOS>ATOM
      1 CR1         2.4778   15.0846   38.8638 C.3         1 MOL       0.1854
      2 CR2         3.5203   16.1168   38.3689 C.3         1 MOL       0.1339
      3 CR3         4.7071   16.2059   39.3682 C.3         1 MOL       0.1144
      4 CR4         4.2181   16.4443   40.8382 C.3         1 MOL       0.1184
      5 CR5         3.0601   15.4650   41.2171 C.3         1 MOL       0.1134
      6 CR6         2.3245   15.8757   42.5193 C.3         1 MOL       0.0730
      7 OR1         2.9791   13.7501   38.8053 O.3         1 MOL      -0.3649
      8 OR2         3.9819   15.7536   37.0672 O.3         1 MOL      -0.3841
      9 OR3         5.5955   17.2454   38.9592 O.3         1 MOL      -0.3864
     10 OR4         5.2340   16.4355   41.8766 O.3         1 MOL      -0.3401
     11 OR5         2.0387   15.4177   40.1935 O.3         1 MOL      -0.3407
     12 OR6         3.0741   15.5897   43.6944 O.3         1 MOL      -0.3924
     13 CV1         6.3384   15.5006   41.8371 C.3         1 MOL       0.1886
     14 CV2         6.6970   14.9247   43.2340 C.3         1 MOL       0.1370
     15 CV3         7.3793   15.9824   44.1434 C.3         1 MOL       0.1304
     16 CV4         8.5825   16.6505   43.4053 C.3         1 MOL       0.0334
     17 CV5         8.0528   17.2265   42.0485 C.3         1 MOL       0.1038
     18 CV6         9.1188   17.9133   41.1649 C.3         1 MOL      -0.0332
     19 OV2         5.5224   14.4039   43.8499 O.3         1 MOL      -0.3840
     20 OV3         7.7858   15.3534   45.3609 O.3         1 MOL      -0.3834
     21 NV4         9.2126   17.7036   44.2497 N.4         1 MOL       0.2370
     22 OV5         7.4931   16.1441   41.2611 O.3         1 MOL      -0.3401
     23 CQ1        13.4225   16.6443   40.7278 C.3         1 MOL       0.1883
     24 CQ2        14.7387   16.3728   39.9606 C.3         1 MOL       0.1341
     25 CQ3        14.4857   15.3779   38.7968 C.3         1 MOL       0.1144
     26 CQ4        13.3062   15.8399   37.8772 C.3         1 MOL       0.1184
     27 CQ5        12.0682   16.3235   38.7147 C.3         1 MOL       0.1134
     28 CQ6        11.1204   15.1748   39.1791 C.3         1 MOL       0.0730
     29 OQ2        15.2682   17.5986   39.4574 O.3         1 MOL      -0.3841
     30 OQ3        14.2321   14.0772   39.3356 O.3         1 MOL      -0.3864
     31 OQ4        13.6523   16.9081   36.9562 O.3         1 MOL      -0.3401
     32 OQ5        12.4462   17.1834   39.8205 O.3         1 MOL      -0.3405
     33 OQ6         9.9125   15.1603   38.4195 O.3         1 MOL      -0.3924
     34 CW1        14.8107   16.7765   36.0939 C.3         1 MOL       0.1884
     35 CW2        14.7050   17.7233   34.8672 C.3         1 MOL       0.1341
     36 CW3        13.6987   17.1806   33.8136 C.3         1 MOL       0.1141
     37 CW4        14.0367   15.7116   33.4385 C.3         1 MOL       0.1119
     38 CW5        14.1296   14.8442   34.7264 C.3         1 MOL       0.1130
     39 CW6        14.5611   13.3783   34.4616 C.3         1 MOL       0.0730
     40 OW2        14.3314   19.0300   35.2980 O.3         1 MOL      -0.3841
     41 OW3        13.7310   17.9765   32.6269 O.3         1 MOL      -0.3864
     42 OW4        13.0465   15.1944   32.5459 O.3         1 MOL      -0.3865
     43 OW5        15.0749   15.4209   35.6600 O.3         1 MOL      -0.3405
     44 OW6        15.9573   13.2637   34.1936 O.3         1 MOL      -0.3924
     45 CY1        10.5338   17.5478   44.9473 C.3         1 MOL       0.0073
     46 CY2        11.4346   18.7870   44.6712 C.3         1 MOL       0.1257
     47 OY2        10.7224   19.9905   44.9421 O.3         1 MOL      -0.3835
     48 CY3        12.0263   18.7363   43.2311 C.3         1 MOL       0.1127
     49 OY3        12.7347   19.9424   42.9461 O.3         1 MOL      -0.3864
     50 CY4        12.9743   17.5098   43.0902 C.3         1 MOL       0.0953
     51 OY4        13.7087   17.5172   41.8396 O.3         1 MOL      -0.3424
     52 CY5        12.2803   16.1536   43.4844 C.3         1 MOL       0.0162
     53 CY6        11.4097   16.2629   44.7797 C.3         1 MOL       0.0002
     54 CY7        13.3059   14.9825   43.6403 C.3         1 MOL       0.0497
     55 OY7        14.5545   15.4195   44.1833 O.3         1 MOL      -0.3946
     56 H1          1.6072   15.1372   38.2082 H           1 MOL       0.0935
     57 H2          3.0373   17.0910   38.2932 H           1 MOL       0.0671
     58 H3          5.2572   15.2681   39.3077 H           1 MOL       0.0648
     59 H4          3.8004   17.4520   40.8577 H           1 MOL       0.0651
     60 H5          3.4625   14.4581   41.3539 H           1 MOL       0.0647
     61 H6          1.3786   15.3359   42.5934 H           1 MOL       0.0584
     62 H7          2.1024   16.9437   42.5097 H           1 MOL       0.0584
     63 H8          2.3744   13.2241   39.3739 H           1 MOL       0.2126
     64 H9          4.5239   16.5104   36.7606 H           1 MOL       0.2101
     65 H10         5.0210   17.9998   38.7201 H           1 MOL       0.2100
     66 H11         3.4130   14.6775   43.5679 H           1 MOL       0.2095
     67 H12         6.0809   14.6379   41.2177 H           1 MOL       0.0938
     68 H13         7.3884   14.0892   43.0870 H           1 MOL       0.0672
     69 H14         6.6422   16.7495   44.4038 H           1 MOL       0.0679
     70 H15         9.3084   15.8761   43.1578 H           1 MOL       0.0903
     71 H16         7.2843   17.9824   42.2499 H           1 MOL       0.0652
     72 H17         8.7005   18.1651   40.1880 H           1 MOL       0.0257
     73 H18         9.9671   17.2531   41.0158 H           1 MOL       0.0257
     74 H19         9.4743   18.8400   41.6233 H           1 MOL       0.0257
     75 H20         5.8265   13.6537   44.4072 H           1 MOL       0.2101
     76 H21         7.9571   16.0851   45.9958 H           1 MOL       0.2102
     77 H22         8.5309   17.9340   44.9805 H           1 MOL       0.2022
     78 H23         9.2807   18.5462   43.6826 H           1 MOL       0.2022
     79 H24        13.0732   15.6901   41.1202 H           1 MOL       0.0938
     80 H25        15.4772   15.9447   40.6445 H           1 MOL       0.0671
     81 H26        15.4068   15.2721   38.2202 H           1 MOL       0.0648
     82 H27        12.9926   14.9796   37.2826 H           1 MOL       0.0651
     83 H28        11.4594   16.9645   38.0668 H           1 MOL       0.0647
     84 H29        10.8426   15.3175   40.2228 H           1 MOL       0.0584
     85 H30        11.5984   14.1972   39.0911 H           1 MOL       0.0584
     86 H31        16.0650   17.3347   38.9491 H           1 MOL       0.2101
     87 H32        14.2863   13.4664   38.5723 H           1 MOL       0.2100
     88 H33        10.1845   14.9755   37.4958 H           1 MOL       0.2095
     89 H34        15.6867   17.1067   36.6619 H           1 MOL       0.0938
     90 H35        15.6933   17.7928   34.4002 H           1 MOL       0.0671
     91 H36        12.6835   17.2188   34.2248 H           1 MOL       0.0648
     92 H37        14.9992   15.6966   32.9225 H           1 MOL       0.0647
     93 H38        13.1370   14.8057   35.1852 H           1 MOL       0.0647
     94 H39        14.0020   12.9607   33.6211 H           1 MOL       0.0584
     95 H40        14.3399   12.7759   35.3455 H           1 MOL       0.0584
     96 H41        14.3421   19.5846   34.4853 H           1 MOL       0.2101
     97 H42        13.1444   18.7431   32.8029 H           1 MOL       0.2100
     98 H43        12.2061   15.2203   33.0524 H           1 MOL       0.2100
     99 H44        16.0809   13.6210   33.2888 H           1 MOL       0.2095
    100 H45        10.2724   17.5878   46.0109 H           1 MOL       0.0877
    101 H46        12.2622   18.7895   45.3899 H           1 MOL       0.0677
    102 H47        10.3522   20.2655   44.0865 H           1 MOL       0.2102
    103 H48        11.2187   18.6551   42.4986 H           1 MOL       0.0647
    104 H49        12.0551   20.5725   42.6240 H           1 MOL       0.2100
    105 H50        13.7546   17.6891   43.8339 H           1 MOL       0.0627
    106 H51        11.6050   15.8835   42.6717 H           1 MOL       0.0351
    107 H52        10.7778   15.3785   44.8664 H           1 MOL       0.0325
    108 H53        12.0934   16.2297   45.6294 H           1 MOL       0.0325
    109 H54        13.5074   14.5142   42.6727 H           1 MOL       0.0561
    110 H55        12.9032   14.1963   44.2921 H           1 MOL       0.0561
    111 H56        14.9867   14.6151   44.5256 H           1 MOL       0.2094
@<TRIPOS>BOND
     1     2     1   1
     2     1     7   1
     3    11     1   1
     4     3     2   1
     5     2     8   1
     6     4     3   1
     7     3     9   1
     8     4     5   1
     9    10     4   1
    10     5     6   1
    11     5    11   1
    12     6    12   1
    13    13    10   1
    14    14    13   1
    15    22    13   1
    16    15    14   1
    17    14    19   1
    18    16    15   1
    19    15    20   1
    20    16    17   1
    21    21    16   1
    22    17    18   1
    23    17    22   1
    24    45    21   1
    25    23    24   1
    26    23    32   1
    27    51    23   1
    28    24    25   1
    29    24    29   1
    30    25    26   1
    31    25    30   1
    32    27    26   1
    33    26    31   1
    34    27    28   1
    35    32    27   1
    36    28    33   1
    37    31    34   1
    38    34    35   1
    39    34    43   1
    40    35    36   1
    41    35    40   1
    42    36    37   1
    43    36    41   1
    44    38    37   1
    45    37    42   1
    46    38    39   1
    47    43    38   1
    48    39    44   1
    49    46    45   1
    50    45    53   1
    51    46    47   1
    52    48    46   1
    53    48    49   1
    54    50    48   1
    55    50    51   1
    56    50    52   1
    57    52    53   1
    58    52    54   1
    59    54    55   1
    60     1    56   1
    61     2    57   1
    62     3    58   1
    63     4    59   1
    64     5    60   1
    65     6    61   1
    66     6    62   1
    67     7    63   1
    68     8    64   1
    69     9    65   1
    70    12    66   1
    71    13    67   1
    72    14    68   1
    73    15    69   1
    74    16    70   1
    75    17    71   1
    76    18    72   1
    77    18    73   1
    78    18    74   1
    79    19    75   1
    80    20    76   1
    81    21    77   1
    82    21    78   1
    83    23    79   1
    84    24    80   1
    85    25    81   1
    86    26    82   1
    87    27    83   1
    88    28    84   1
    89    28    85   1
    90    29    86   1
    91    30    87   1
    92    33    88   1
    93    34    89   1
    94    35    90   1
    95    36    91   1
    96    37    92   1
    97    38    93   1
    98    39    94   1
    99    39    95   1
   100    40    96   1
   101    41    97   1
   102    42    98   1
   103    44    99   1
   104    45   100   1
   105    46   101   1
   106    47   102   1
   107    48   103   1
   108    49   104   1
   109    50   105   1
   110    52   106   1
   111    53   107   1
   112    53   108   1
   113    54   109   1
   114    54   110   1
   115    55   111   1
@<TRIPOS>SUBSTRUCTURE
     1  MOL      1

