@<TRIPOS>MOLECULE
1xd0_ligand_030
   111   115
SMALL
GAST_HUCK
****
This file was generated by PARSER (from files_GN.cpp)

@<TRIPOS>ATOM
      1 CR1        -2.9696   16.8634   39.2895 C.3         1 MOL       0.1854
      2 CR2        -2.3535   15.4568   39.5259 C.3         1 MOL       0.1339
      3 CR3        -0.9445   15.5703   40.1818 C.3         1 MOL       0.1144
      4 CR4        -0.0333   16.5635   39.4058 C.3         1 MOL       0.1184
      5 CR5        -0.7590   17.9343   39.2180 C.3         1 MOL       0.1134
      6 CR6         0.0605   18.8872   38.3083 C.3         1 MOL       0.0730
      7 OR1        -3.4326   17.4362   40.5105 O.3         1 MOL      -0.3649
      8 OR2        -3.2345   14.6796   40.3422 O.3         1 MOL      -0.3841
      9 OR3        -0.3077   14.2917   40.2322 O.3         1 MOL      -0.3864
     10 OR4         1.1783   16.8054   40.1569 O.3         1 MOL      -0.3401
     11 OR5        -2.0586   17.7495   38.6085 O.3         1 MOL      -0.3407
     12 OR6        -0.4627   20.2157   38.3267 O.3         1 MOL      -0.3924
     13 CV1         2.4039   16.1359   39.7828 C.3         1 MOL       0.1886
     14 CV2         2.8467   15.1229   40.8741 C.3         1 MOL       0.1370
     15 CV3         4.2009   14.4902   40.4698 C.3         1 MOL       0.1304
     16 CV4         5.2878   15.5794   40.1539 C.3         1 MOL       0.0334
     17 CV5         4.7290   16.7344   39.2545 C.3         1 MOL       0.1038
     18 CV6         4.7912   16.4379   37.7314 C.3         1 MOL      -0.0332
     19 OV2         2.9770   15.7649   42.1444 O.3         1 MOL      -0.3840
     20 OV3         4.0182   13.6370   39.3322 O.3         1 MOL      -0.3834
     21 NV4         5.8759   16.1992   41.3812 N.4         1 MOL       0.2370
     22 OV5         3.4137   17.1678   39.6559 O.3         1 MOL      -0.3401
     23 CQ1        11.8196   17.0805   41.3571 C.3         1 MOL       0.1883
     24 CQ2        12.4260   18.1905   40.4667 C.3         1 MOL       0.1341
     25 CQ3        13.9621   18.2780   40.6692 C.3         1 MOL       0.1144
     26 CQ4        14.6477   16.8847   40.5329 C.3         1 MOL       0.1184
     27 CQ5        13.9086   15.7825   41.3558 C.3         1 MOL       0.1134
     28 CQ6        14.2626   15.7537   42.8688 C.3         1 MOL       0.0730
     29 OQ2        12.1109   17.9033   39.1024 O.3         1 MOL      -0.3841
     30 OQ3        14.2752   18.8472   41.9435 O.3         1 MOL      -0.3864
     31 OQ4        14.5914   16.5356   39.1279 O.3         1 MOL      -0.3401
     32 OQ5        12.4839   15.8197   41.1285 O.3         1 MOL      -0.3405
     33 OQ6        13.6253   14.6502   43.5075 O.3         1 MOL      -0.3924
     34 CW1        15.8337   16.4094   38.4002 C.3         1 MOL       0.1884
     35 CW2        15.5924   16.6752   36.8908 C.3         1 MOL       0.1341
     36 CW3        14.7522   15.5271   36.2711 C.3         1 MOL       0.1141
     37 CW4        15.3880   14.1449   36.5659 C.3         1 MOL       0.1119
     38 CW5        15.6771   13.9882   38.0925 C.3         1 MOL       0.1130
     39 CW6        16.4483   12.6956   38.4449 C.3         1 MOL       0.0730
     40 OW2        14.9571   17.9367   36.7094 O.3         1 MOL      -0.3841
     41 OW3        14.6333   15.7221   34.8576 O.3         1 MOL      -0.3864
     42 OW4        14.5205   13.1067   36.1015 O.3         1 MOL      -0.3865
     43 OW5        16.4405   15.1107   38.5925 O.3         1 MOL      -0.3405
     44 OW6        17.1408   12.1103   37.3375 O.3         1 MOL      -0.3924
     45 CY1         6.6908   15.3993   42.3500 C.3         1 MOL       0.0073
     46 CY2         7.4657   16.3510   43.3149 C.3         1 MOL       0.1257
     47 OY2         6.5608   17.2752   43.9146 O.3         1 MOL      -0.3835
     48 CY3         8.6188   17.1065   42.5886 C.3         1 MOL       0.1127
     49 OY3         9.3799   17.8597   43.5346 O.3         1 MOL      -0.3864
     50 CY4         9.5775   16.1404   41.8190 C.3         1 MOL       0.0953
     51 OY4        10.4349   16.9632   40.9989 O.3         1 MOL      -0.3424
     52 CY5         8.8009   15.1692   40.8799 C.3         1 MOL       0.0162
     53 CY6         7.7101   14.4116   41.6960 C.3         1 MOL       0.0002
     54 CY7         9.7178   14.1860   40.0914 C.3         1 MOL       0.0497
     55 OY7        10.8355   13.7387   40.8590 O.3         1 MOL      -0.3946
     56 H1         -3.8396   16.7508   38.6445 H           1 MOL       0.0935
     57 H2         -2.2602   14.9459   38.5611 H           1 MOL       0.0671
     58 H3         -1.0583   15.9256   41.2115 H           1 MOL       0.0648
     59 H4          0.1624   16.1562   38.4052 H           1 MOL       0.0651
     60 H5         -0.8832   18.4239   40.1924 H           1 MOL       0.0647
     61 H6          0.0473   18.5068   37.2792 H           1 MOL       0.0584
     62 H7          1.1004   18.9391   38.6447 H           1 MOL       0.0584
     63 H8         -2.6605   17.4117   41.1169 H           1 MOL       0.2126
     64 H9         -2.6903   13.9347   40.6784 H           1 MOL       0.2101
     65 H10        -0.7369   13.7615   39.5259 H           1 MOL       0.2100
     66 H11        -0.9290   20.3034   37.4679 H           1 MOL       0.2095
     67 H12         2.2875   15.6218   38.8175 H           1 MOL       0.0938
     68 H13         2.1117   14.3270   40.9663 H           1 MOL       0.0672
     69 H14         4.5424   13.8404   41.2808 H           1 MOL       0.0679
     70 H15         6.1061   15.1047   39.6011 H           1 MOL       0.0903
     71 H16         5.3590   17.6152   39.3824 H           1 MOL       0.0652
     72 H17         4.3562   17.2772   37.1753 H           1 MOL       0.0257
     73 H18         4.2454   15.5250   37.4717 H           1 MOL       0.0257
     74 H19         5.8308   16.3170   37.4101 H           1 MOL       0.0257
     75 H20         2.0873   16.1097   42.3525 H           1 MOL       0.2101
     76 H21         4.8550   13.1217   39.2526 H           1 MOL       0.2102
     77 H22         5.1181   16.6332   41.9150 H           1 MOL       0.2022
     78 H23         6.4836   16.9531   41.0548 H           1 MOL       0.2022
     79 H24        11.8967   17.3716   42.4090 H           1 MOL       0.0938
     80 H25        11.9650   19.1479   40.7277 H           1 MOL       0.0671
     81 H26        14.3779   18.9526   39.9140 H           1 MOL       0.0648
     82 H27        15.6827   16.9589   40.8892 H           1 MOL       0.0651
     83 H28        14.2431   14.8156   40.9711 H           1 MOL       0.0647
     84 H29        13.9479   16.6684   43.3698 H           1 MOL       0.0584
     85 H30        15.3424   15.6459   42.9943 H           1 MOL       0.0584
     86 H31        11.8375   18.7450   38.6825 H           1 MOL       0.2101
     87 H32        13.8225   19.7182   41.9580 H           1 MOL       0.2100
     88 H33        14.2760   14.3400   44.1792 H           1 MOL       0.2095
     89 H34        16.5343   17.1705   38.7519 H           1 MOL       0.0938
     90 H35        16.5576   16.7078   36.3880 H           1 MOL       0.0671
     91 H36        13.7353   15.5579   36.6875 H           1 MOL       0.0648
     92 H37        16.3288   14.0727   36.0119 H           1 MOL       0.0647
     93 H38        14.7235   13.9411   38.6203 H           1 MOL       0.0647
     94 H39        15.7542   11.9440   38.8386 H           1 MOL       0.0584
     95 H40        17.1904   12.9119   39.2230 H           1 MOL       0.0584
     96 H41        15.0100   18.1237   35.7514 H           1 MOL       0.2101
     97 H42        15.5533   15.7353   34.5158 H           1 MOL       0.2100
     98 H43        14.5781   13.1529   35.1205 H           1 MOL       0.2100
     99 H44        17.7949   12.7863   37.0537 H           1 MOL       0.2095
    100 H45         5.9994   14.8104   42.9677 H           1 MOL       0.0877
    101 H46         7.9049   15.7568   44.1245 H           1 MOL       0.0677
    102 H47         7.0779   17.7771   44.5789 H           1 MOL       0.2102
    103 H48         8.1847   17.8200   41.8787 H           1 MOL       0.0647
    104 H49         9.0838   18.7904   43.4263 H           1 MOL       0.2100
    105 H50        10.1452   15.5513   42.5575 H           1 MOL       0.0627
    106 H51         8.2974   15.7707   40.1221 H           1 MOL       0.0351
    107 H52         7.1779   13.6957   41.0639 H           1 MOL       0.0325
    108 H53         8.1928   13.8277   42.4883 H           1 MOL       0.0325
    109 H54        10.0992   14.6761   39.1890 H           1 MOL       0.0561
    110 H55         9.1364   13.3122   39.7731 H           1 MOL       0.0561
    111 H56        11.3395   13.1474   40.2480 H           1 MOL       0.2094
@<TRIPOS>BOND
     1     2     1   1
     2     1     7   1
     3    11     1   1
     4     3     2   1
     5     2     8   1
     6     4     3   1
     7     3     9   1
     8     4     5   1
     9    10     4   1
    10     5     6   1
    11     5    11   1
    12     6    12   1
    13    13    10   1
    14    14    13   1
    15    22    13   1
    16    15    14   1
    17    14    19   1
    18    16    15   1
    19    15    20   1
    20    16    17   1
    21    21    16   1
    22    17    18   1
    23    17    22   1
    24    45    21   1
    25    23    24   1
    26    23    32   1
    27    51    23   1
    28    24    25   1
    29    24    29   1
    30    25    26   1
    31    25    30   1
    32    27    26   1
    33    26    31   1
    34    27    28   1
    35    32    27   1
    36    28    33   1
    37    31    34   1
    38    34    35   1
    39    34    43   1
    40    35    36   1
    41    35    40   1
    42    36    37   1
    43    36    41   1
    44    38    37   1
    45    37    42   1
    46    38    39   1
    47    43    38   1
    48    39    44   1
    49    46    45   1
    50    45    53   1
    51    46    47   1
    52    48    46   1
    53    48    49   1
    54    50    48   1
    55    50    51   1
    56    50    52   1
    57    52    53   1
    58    52    54   1
    59    54    55   1
    60     1    56   1
    61     2    57   1
    62     3    58   1
    63     4    59   1
    64     5    60   1
    65     6    61   1
    66     6    62   1
    67     7    63   1
    68     8    64   1
    69     9    65   1
    70    12    66   1
    71    13    67   1
    72    14    68   1
    73    15    69   1
    74    16    70   1
    75    17    71   1
    76    18    72   1
    77    18    73   1
    78    18    74   1
    79    19    75   1
    80    20    76   1
    81    21    77   1
    82    21    78   1
    83    23    79   1
    84    24    80   1
    85    25    81   1
    86    26    82   1
    87    27    83   1
    88    28    84   1
    89    28    85   1
    90    29    86   1
    91    30    87   1
    92    33    88   1
    93    34    89   1
    94    35    90   1
    95    36    91   1
    96    37    92   1
    97    38    93   1
    98    39    94   1
    99    39    95   1
   100    40    96   1
   101    41    97   1
   102    42    98   1
   103    44    99   1
   104    45   100   1
   105    46   101   1
   106    47   102   1
   107    48   103   1
   108    49   104   1
   109    50   105   1
   110    52   106   1
   111    53   107   1
   112    53   108   1
   113    54   109   1
   114    54   110   1
   115    55   111   1
@<TRIPOS>SUBSTRUCTURE
     1  MOL      1

