@<TRIPOS>MOLECULE
1xd0_ligand_008
   111   115
SMALL
GAST_HUCK
****
This file was generated by PARSER (from files_GN.cpp)

@<TRIPOS>ATOM
      1 CR1        15.1334   14.9224   39.9331 C.3         1 MOL       0.1854
      2 CR2        15.6390   16.3612   40.1878 C.3         1 MOL       0.1339
      3 CR3        14.7672   17.0521   41.2718 C.3         1 MOL       0.1144
      4 CR4        13.2474   16.9895   40.9154 C.3         1 MOL       0.1184
      5 CR5        12.8330   15.5378   40.5004 C.3         1 MOL       0.1134
      6 CR6        11.4370   15.4933   39.8239 C.3         1 MOL       0.0730
      7 OR1        15.3356   14.0729   41.0709 O.3         1 MOL      -0.3649
      8 OR2        17.0160   16.2926   40.5549 O.3         1 MOL      -0.3841
      9 OR3        15.1806   18.4131   41.4300 O.3         1 MOL      -0.3864
     10 OR4        12.4598   17.3435   42.0790 O.3         1 MOL      -0.3401
     11 OR5        13.7448   14.9467   39.5502 O.3         1 MOL      -0.3407
     12 OR6        10.7988   14.2416   40.0529 O.3         1 MOL      -0.3924
     13 CV1        11.8472   18.6515   42.1507 C.3         1 MOL       0.1886
     14 CV2        11.6086   19.0693   43.6222 C.3         1 MOL       0.1370
     15 CV3        10.5750   18.1472   44.3090 C.3         1 MOL       0.1304
     16 CV4         9.2620   18.0236   43.4855 C.3         1 MOL       0.0334
     17 CV5         9.5127   17.8546   41.9544 C.3         1 MOL       0.1038
     18 CV6         8.2831   18.1692   41.0616 C.3         1 MOL      -0.0332
     19 OV2        12.8551   19.0415   44.3242 O.3         1 MOL      -0.3840
     20 OV3        10.2530   18.6819   45.5952 O.3         1 MOL      -0.3834
     21 NV4         8.2792   17.0597   44.0907 N.4         1 MOL       0.2370
     22 OV5        10.5946   18.6742   41.4341 O.3         1 MOL      -0.3401
     23 CQ1         3.8800   15.5258   41.8080 C.3         1 MOL       0.1883
     24 CQ2         3.7157   16.8484   41.0257 C.3         1 MOL       0.1341
     25 CQ3         2.8302   16.6378   39.7668 C.3         1 MOL       0.1144
     26 CQ4         1.4877   15.9184   40.1183 C.3         1 MOL       0.1184
     27 CQ5         1.6927   14.7025   41.0799 C.3         1 MOL       0.1134
     28 CQ6         2.1009   13.3921   40.3515 C.3         1 MOL       0.0730
     29 OQ2         3.1391   17.8269   41.8808 O.3         1 MOL      -0.3841
     30 OQ3         3.5628   15.9057   38.7839 O.3         1 MOL      -0.3864
     31 OQ4         0.5986   16.8773   40.7504 O.3         1 MOL      -0.3401
     32 OQ5         2.5902   14.9927   42.1724 O.3         1 MOL      -0.3405
     33 OQ6         0.9988   12.4964   40.2098 O.3         1 MOL      -0.3924
     34 CW1        -0.5716   17.3451   40.0381 C.3         1 MOL       0.1884
     35 CW2        -1.7318   16.3221   40.2266 C.3         1 MOL       0.1341
     36 CW3        -2.9803   16.7407   39.4019 C.3         1 MOL       0.1141
     37 CW4        -2.6272   17.0664   37.9240 C.3         1 MOL       0.1119
     38 CW5        -1.4177   18.0455   37.8024 C.3         1 MOL       0.1130
     39 CW6        -1.7723   19.5400   38.0060 C.3         1 MOL       0.0730
     40 OW2        -1.3276   15.0036   39.8468 O.3         1 MOL      -0.3841
     41 OW3        -3.6204   17.8642   40.0108 O.3         1 MOL      -0.3864
     42 OW4        -2.2996   15.8553   37.2361 O.3         1 MOL      -0.3865
     43 OW5        -0.3198   17.6344   38.6412 O.3         1 MOL      -0.3405
     44 OW6        -0.5989   20.3520   38.0198 O.3         1 MOL      -0.3924
     45 CY1         8.4826   15.5858   44.3365 C.3         1 MOL       0.0073
     46 CY2         8.2720   14.6055   43.1488 C.3         1 MOL       0.1257
     47 OY2         9.3499   14.6852   42.2042 O.3         1 MOL      -0.3835
     48 CY3         6.8846   14.8394   42.4845 C.3         1 MOL       0.1127
     49 OY3         6.7061   13.8532   41.4633 O.3         1 MOL      -0.3864
     50 CY4         5.6606   14.8611   43.4720 C.3         1 MOL       0.0953
     51 OY4         4.6532   15.7828   42.9955 O.3         1 MOL      -0.3424
     52 CY5         5.9653   15.3258   44.9504 C.3         1 MOL       0.0162
     53 CY6         7.4494   15.1359   45.4139 C.3         1 MOL       0.0002
     54 CY7         5.0107   14.6496   45.9886 C.3         1 MOL       0.0497
     55 OY7         3.6985   15.2106   45.9844 O.3         1 MOL      -0.3946
     56 H1         15.6920   14.4884   39.1002 H           1 MOL       0.0935
     57 H2         15.5679   16.9281   39.2520 H           1 MOL       0.0671
     58 H3         14.9277   16.5485   42.2290 H           1 MOL       0.0648
     59 H4         13.0477   17.6609   40.0691 H           1 MOL       0.0651
     60 H5         12.8050   14.9195   41.4021 H           1 MOL       0.0647
     61 H6         11.5166   15.6635   38.7487 H           1 MOL       0.0584
     62 H7         10.7805   16.2615   40.2218 H           1 MOL       0.0584
     63 H8         16.3136   14.0013   41.1645 H           1 MOL       0.2126
     64 H9         17.2524   17.1917   40.8432 H           1 MOL       0.2101
     65 H10        16.1355   18.3844   41.6467 H           1 MOL       0.2100
     66 H11        11.4682   13.5656   39.8008 H           1 MOL       0.2095
     67 H12        12.4818   19.4162   41.6881 H           1 MOL       0.0938
     68 H13        11.2290   20.1004   43.6213 H           1 MOL       0.0672
     69 H14        11.0291   17.1582   44.4292 H           1 MOL       0.0679
     70 H15         8.7678   18.9929   43.5784 H           1 MOL       0.0903
     71 H16         9.8048   16.8192   41.7748 H           1 MOL       0.0652
     72 H17         8.4520   17.7861   40.0549 H           1 MOL       0.0257
     73 H18         8.1387   19.2443   41.0036 H           1 MOL       0.0257
     74 H19         7.3717   17.7350   41.4613 H           1 MOL       0.0257
     75 H20        13.0467   19.9870   44.5405 H           1 MOL       0.2101
     76 H21        10.8197   18.1809   46.2281 H           1 MOL       0.2102
     77 H22         7.4018   17.1660   43.5673 H           1 MOL       0.2022
     78 H23         8.0931   17.4476   45.0218 H           1 MOL       0.2022
     79 H24         4.4038   14.8192   41.1590 H           1 MOL       0.0938
     80 H25         4.7046   17.2137   40.7337 H           1 MOL       0.0671
     81 H26         2.6217   17.6178   39.3271 H           1 MOL       0.0648
     82 H27         1.0290   15.5396   39.1968 H           1 MOL       0.0651
     83 H28         0.7319   14.4973   41.5489 H           1 MOL       0.0647
     84 H29         2.8875   12.8913   40.9170 H           1 MOL       0.0584
     85 H30         2.4968   13.6041   39.3540 H           1 MOL       0.0584
     86 H31         3.3958   18.6857   41.4888 H           1 MOL       0.2101
     87 H32         3.0154   15.9295   37.9741 H           1 MOL       0.2100
     88 H33         0.4557   12.6160   41.0170 H           1 MOL       0.2095
     89 H34        -0.8570   18.2743   40.5329 H           1 MOL       0.0938
     90 H35        -2.0103   16.2813   41.2888 H           1 MOL       0.0671
     91 H36        -3.7059   15.9172   39.4174 H           1 MOL       0.0648
     92 H37        -3.5021   17.4912   37.4222 H           1 MOL       0.0647
     93 H38        -1.0519   17.9701   36.7761 H           1 MOL       0.0647
     94 H39        -2.2999   19.6966   38.9467 H           1 MOL       0.0584
     95 H40        -2.4179   19.8899   37.1946 H           1 MOL       0.0584
     96 H41        -1.5077   14.4396   40.6311 H           1 MOL       0.2101
     97 H42        -3.8511   17.5733   40.9156 H           1 MOL       0.2100
     98 H43        -3.1413   15.3520   37.1758 H           1 MOL       0.2100
     99 H44        -0.1518   20.1639   37.1679 H           1 MOL       0.2095
    100 H45         9.4661   15.4180   44.7645 H           1 MOL       0.0877
    101 H46         8.2929   13.5727   43.5030 H           1 MOL       0.0677
    102 H47         9.0590   14.1504   41.4265 H           1 MOL       0.2102
    103 H48         6.9282   15.7944   41.9589 H           1 MOL       0.0647
    104 H49         6.2127   13.1107   41.8751 H           1 MOL       0.2100
    105 H50         5.2422   13.8549   43.4983 H           1 MOL       0.0627
    106 H51         5.7784   16.4073   45.0174 H           1 MOL       0.0351
    107 H52         7.6166   15.7140   46.3244 H           1 MOL       0.0325
    108 H53         7.6241   14.0856   45.6744 H           1 MOL       0.0325
    109 H54         5.4069   14.7858   46.9996 H           1 MOL       0.0561
    110 H55         4.9439   13.5781   45.7910 H           1 MOL       0.0561
    111 H56         3.4506   15.2910   45.0331 H           1 MOL       0.2094
@<TRIPOS>BOND
     1     2     1   1
     2     1     7   1
     3    11     1   1
     4     3     2   1
     5     2     8   1
     6     4     3   1
     7     3     9   1
     8     4     5   1
     9    10     4   1
    10     5     6   1
    11     5    11   1
    12     6    12   1
    13    13    10   1
    14    14    13   1
    15    22    13   1
    16    15    14   1
    17    14    19   1
    18    16    15   1
    19    15    20   1
    20    16    17   1
    21    21    16   1
    22    17    18   1
    23    17    22   1
    24    45    21   1
    25    23    24   1
    26    23    32   1
    27    51    23   1
    28    24    25   1
    29    24    29   1
    30    25    26   1
    31    25    30   1
    32    27    26   1
    33    26    31   1
    34    27    28   1
    35    32    27   1
    36    28    33   1
    37    31    34   1
    38    34    35   1
    39    34    43   1
    40    35    36   1
    41    35    40   1
    42    36    37   1
    43    36    41   1
    44    38    37   1
    45    37    42   1
    46    38    39   1
    47    43    38   1
    48    39    44   1
    49    46    45   1
    50    45    53   1
    51    46    47   1
    52    48    46   1
    53    48    49   1
    54    50    48   1
    55    50    51   1
    56    50    52   1
    57    52    53   1
    58    52    54   1
    59    54    55   1
    60     1    56   1
    61     2    57   1
    62     3    58   1
    63     4    59   1
    64     5    60   1
    65     6    61   1
    66     6    62   1
    67     7    63   1
    68     8    64   1
    69     9    65   1
    70    12    66   1
    71    13    67   1
    72    14    68   1
    73    15    69   1
    74    16    70   1
    75    17    71   1
    76    18    72   1
    77    18    73   1
    78    18    74   1
    79    19    75   1
    80    20    76   1
    81    21    77   1
    82    21    78   1
    83    23    79   1
    84    24    80   1
    85    25    81   1
    86    26    82   1
    87    27    83   1
    88    28    84   1
    89    28    85   1
    90    29    86   1
    91    30    87   1
    92    33    88   1
    93    34    89   1
    94    35    90   1
    95    36    91   1
    96    37    92   1
    97    38    93   1
    98    39    94   1
    99    39    95   1
   100    40    96   1
   101    41    97   1
   102    42    98   1
   103    44    99   1
   104    45   100   1
   105    46   101   1
   106    47   102   1
   107    48   103   1
   108    49   104   1
   109    50   105   1
   110    52   106   1
   111    53   107   1
   112    53   108   1
   113    54   109   1
   114    54   110   1
   115    55   111   1
@<TRIPOS>SUBSTRUCTURE
     1  MOL      1

