@<TRIPOS>MOLECULE
1xd0_ligand_083
   111   115
SMALL
GAST_HUCK
****
This file was generated by PARSER (from files_GN.cpp)

@<TRIPOS>ATOM
      1 CR1        -4.6985   16.6537   39.2074 C.3         1 MOL       0.1854
      2 CR2        -3.7345   17.8737   39.2014 C.3         1 MOL       0.1339
      3 CR3        -2.3100   17.4188   39.5308 C.3         1 MOL       0.1144
      4 CR4        -2.2033   16.5946   40.8602 C.3         1 MOL       0.1184
      5 CR5        -3.3711   15.5291   40.9669 C.3         1 MOL       0.1134
      6 CR6        -3.6353   15.0538   42.4261 C.3         1 MOL       0.0730
      7 OR1        -4.4252   15.7376   38.1568 O.3         1 MOL      -0.3649
      8 OR2        -3.7760   18.5277   37.9341 O.3         1 MOL      -0.3841
      9 OR3        -1.4046   18.5264   39.6069 O.3         1 MOL      -0.3864
     10 OR4        -0.9594   15.9319   41.1908 O.3         1 MOL      -0.3401
     11 OR5        -4.6476   16.0193   40.4918 O.3         1 MOL      -0.3407
     12 OR6        -2.4673   14.7541   43.1897 O.3         1 MOL      -0.3924
     13 CV1         0.1455   15.7290   40.2928 C.3         1 MOL       0.1886
     14 CV2         0.8074   14.3623   40.4920 C.3         1 MOL       0.1370
     15 CV3         2.0351   14.2501   39.5541 C.3         1 MOL       0.1304
     16 CV4         3.0396   15.4313   39.7645 C.3         1 MOL       0.0334
     17 CV5         2.2832   16.8152   39.7139 C.3         1 MOL       0.1038
     18 CV6         2.0039   17.3692   38.3046 C.3         1 MOL      -0.0332
     19 OV2         1.1831   14.1306   41.8480 O.3         1 MOL      -0.3840
     20 OV3         1.6167   14.1961   38.1933 O.3         1 MOL      -0.3834
     21 NV4         3.7703   15.3746   41.0669 N.4         1 MOL       0.2370
     22 OV5         1.0743   16.7993   40.5168 O.3         1 MOL      -0.3401
     23 CQ1         8.8719   16.2485   44.3735 C.3         1 MOL       0.1883
     24 CQ2         9.3562   17.6656   44.7676 C.3         1 MOL       0.1341
     25 CQ3        10.4981   18.1119   43.8264 C.3         1 MOL       0.1144
     26 CQ4        11.6811   17.1065   43.7342 C.3         1 MOL       0.1184
     27 CQ5        11.1559   15.6331   43.6321 C.3         1 MOL       0.1134
     28 CQ6        12.2553   14.5828   43.9890 C.3         1 MOL       0.0730
     29 OQ2         8.2725   18.5976   44.7354 O.3         1 MOL      -0.3841
     30 OQ3        11.0142   19.3735   44.2535 O.3         1 MOL      -0.3864
     31 OQ4        12.4355   17.6614   42.6219 O.3         1 MOL      -0.3401
     32 OQ5         9.9902   15.3547   44.4385 O.3         1 MOL      -0.3405
     33 OQ6        12.2042   14.1759   45.3508 O.3         1 MOL      -0.3924
     34 CW1        13.5824   17.0740   41.9846 C.3         1 MOL       0.1884
     35 CW2        14.2376   18.1153   41.0292 C.3         1 MOL       0.1341
     36 CW3        13.2794   18.4507   39.8487 C.3         1 MOL       0.1141
     37 CW4        12.8270   17.1547   39.1188 C.3         1 MOL       0.1119
     38 CW5        12.2639   16.1383   40.1501 C.3         1 MOL       0.1130
     39 CW6        11.9024   14.7616   39.5458 C.3         1 MOL       0.0730
     40 OW2        14.6190   19.2923   41.7310 O.3         1 MOL      -0.3841
     41 OW3        13.9180   19.3275   38.9159 O.3         1 MOL      -0.3864
     42 OW4        11.8728   17.4136   38.0804 O.3         1 MOL      -0.3865
     43 OW5        13.2406   15.9138   41.2061 O.3         1 MOL      -0.3405
     44 OW6        11.5537   13.8537   40.5831 O.3         1 MOL      -0.3924
     45 CY1         4.6633   14.2168   41.3879 C.3         1 MOL       0.0073
     46 CY2         4.9146   14.1080   42.9073 C.3         1 MOL       0.1257
     47 OY2         3.6605   14.1503   43.6060 O.3         1 MOL      -0.3835
     48 CY3         5.8962   15.1946   43.4339 C.3         1 MOL       0.1127
     49 OY3         6.0434   14.9284   44.8216 O.3         1 MOL      -0.3864
     50 CY4         7.2771   15.1945   42.6643 C.3         1 MOL       0.0953
     51 OY4         8.1652   16.2561   43.0983 O.3         1 MOL      -0.3424
     52 CY5         6.9983   15.3441   41.1246 C.3         1 MOL       0.0162
     53 CY6         6.0129   14.2504   40.6162 C.3         1 MOL       0.0002
     54 CY7         8.3015   15.3075   40.2696 C.3         1 MOL       0.0497
     55 OY7         8.0562   15.3326   38.8652 O.3         1 MOL      -0.3946
     56 H1         -5.7125   17.0065   39.0621 H           1 MOL       0.0935
     57 H2         -4.0756   18.5745   39.9554 H           1 MOL       0.0671
     58 H3         -1.9992   16.8337   38.6709 H           1 MOL       0.0648
     59 H4         -2.3801   17.3045   41.6740 H           1 MOL       0.0651
     60 H5         -3.0984   14.6503   40.3671 H           1 MOL       0.0647
     61 H6         -4.2448   14.1421   42.3978 H           1 MOL       0.0584
     62 H7         -4.2046   15.8157   42.9663 H           1 MOL       0.0584
     63 H8         -3.5440   15.3618   38.3499 H           1 MOL       0.2126
     64 H9         -4.7096   18.7919   37.7964 H           1 MOL       0.2101
     65 H10        -1.4357   18.9253   38.7145 H           1 MOL       0.2100
     66 H11        -2.0111   15.6139   43.3289 H           1 MOL       0.2095
     67 H12        -0.1814   15.7248   39.2692 H           1 MOL       0.0938
     68 H13         0.1055   13.5746   40.2259 H           1 MOL       0.0672
     69 H14         2.5140   13.2954   39.7174 H           1 MOL       0.0679
     70 H15         3.7906   15.4275   38.9652 H           1 MOL       0.0903
     71 H16         2.9332   17.5682   40.1863 H           1 MOL       0.0652
     72 H17         1.5225   18.3452   38.3883 H           1 MOL       0.0257
     73 H18         1.3511   16.7160   37.7300 H           1 MOL       0.0257
     74 H19         2.9402   17.4935   37.7582 H           1 MOL       0.0257
     75 H20         1.0679   14.9797   42.3248 H           1 MOL       0.2101
     76 H21         2.4306   14.0688   37.6594 H           1 MOL       0.2102
     77 H22         3.0590   15.4240   41.8004 H           1 MOL       0.2022
     78 H23         4.3435   16.2223   41.1558 H           1 MOL       0.2022
     79 H24         8.2182   15.9734   45.1826 H           1 MOL       0.0938
     80 H25         9.7195   17.6442   45.8062 H           1 MOL       0.0671
     81 H26        10.0679   18.2465   42.8279 H           1 MOL       0.0648
     82 H27        12.2833   17.1973   44.6414 H           1 MOL       0.0651
     83 H28        10.8327   15.4490   42.6265 H           1 MOL       0.0647
     84 H29        13.2553   14.9485   43.7760 H           1 MOL       0.0584
     85 H30        12.1139   13.6932   43.3834 H           1 MOL       0.0584
     86 H31         8.2308   18.9298   43.8143 H           1 MOL       0.2101
     87 H32        10.3698   20.0242   43.9170 H           1 MOL       0.2100
     88 H33        12.3915   14.9645   45.9029 H           1 MOL       0.2095
     89 H34        14.3166   16.7955   42.7391 H           1 MOL       0.0938
     90 H35        15.1511   17.6825   40.6145 H           1 MOL       0.0671
     91 H36        12.3918   18.9669   40.2318 H           1 MOL       0.0648
     92 H37        13.7003   16.7020   38.6421 H           1 MOL       0.0647
     93 H38        11.3363   16.5480   40.5652 H           1 MOL       0.0647
     94 H39        12.7515   14.3621   38.9932 H           1 MOL       0.0584
     95 H40        11.0538   14.8572   38.8652 H           1 MOL       0.0584
     96 H41        13.7933   19.6836   42.0852 H           1 MOL       0.2101
     97 H42        13.2224   19.5672   38.2633 H           1 MOL       0.2100
     98 H43        11.4785   18.2920   38.2615 H           1 MOL       0.2100
     99 H44        11.4931   12.9862   40.1515 H           1 MOL       0.2095
    100 H45         4.1586   13.2962   41.1106 H           1 MOL       0.0877
    101 H46         5.3475   13.1230   43.1058 H           1 MOL       0.0677
    102 H47         3.8740   14.0059   44.5488 H           1 MOL       0.2102
    103 H48         5.4347   16.1792   43.3375 H           1 MOL       0.0647
    104 H49         6.4397   14.0291   44.8715 H           1 MOL       0.2100
    105 H50         7.7529   14.2278   42.8327 H           1 MOL       0.0627
    106 H51         6.5360   16.3185   40.9519 H           1 MOL       0.0351
    107 H52         5.7962   14.3825   39.5529 H           1 MOL       0.0325
    108 H53         6.4881   13.2705   40.7203 H           1 MOL       0.0325
    109 H54         8.8586   14.4001   40.4877 H           1 MOL       0.0561
    110 H55         8.9217   16.1658   40.5066 H           1 MOL       0.0561
    111 H56         7.5472   16.1511   38.6915 H           1 MOL       0.2094
@<TRIPOS>BOND
     1     2     1   1
     2     1     7   1
     3    11     1   1
     4     3     2   1
     5     2     8   1
     6     4     3   1
     7     3     9   1
     8     4     5   1
     9    10     4   1
    10     5     6   1
    11     5    11   1
    12     6    12   1
    13    13    10   1
    14    14    13   1
    15    22    13   1
    16    15    14   1
    17    14    19   1
    18    16    15   1
    19    15    20   1
    20    16    17   1
    21    21    16   1
    22    17    18   1
    23    17    22   1
    24    45    21   1
    25    23    24   1
    26    23    32   1
    27    51    23   1
    28    24    25   1
    29    24    29   1
    30    25    26   1
    31    25    30   1
    32    27    26   1
    33    26    31   1
    34    27    28   1
    35    32    27   1
    36    28    33   1
    37    31    34   1
    38    34    35   1
    39    34    43   1
    40    35    36   1
    41    35    40   1
    42    36    37   1
    43    36    41   1
    44    38    37   1
    45    37    42   1
    46    38    39   1
    47    43    38   1
    48    39    44   1
    49    46    45   1
    50    45    53   1
    51    46    47   1
    52    48    46   1
    53    48    49   1
    54    50    48   1
    55    50    51   1
    56    50    52   1
    57    52    53   1
    58    52    54   1
    59    54    55   1
    60     1    56   1
    61     2    57   1
    62     3    58   1
    63     4    59   1
    64     5    60   1
    65     6    61   1
    66     6    62   1
    67     7    63   1
    68     8    64   1
    69     9    65   1
    70    12    66   1
    71    13    67   1
    72    14    68   1
    73    15    69   1
    74    16    70   1
    75    17    71   1
    76    18    72   1
    77    18    73   1
    78    18    74   1
    79    19    75   1
    80    20    76   1
    81    21    77   1
    82    21    78   1
    83    23    79   1
    84    24    80   1
    85    25    81   1
    86    26    82   1
    87    27    83   1
    88    28    84   1
    89    28    85   1
    90    29    86   1
    91    30    87   1
    92    33    88   1
    93    34    89   1
    94    35    90   1
    95    36    91   1
    96    37    92   1
    97    38    93   1
    98    39    94   1
    99    39    95   1
   100    40    96   1
   101    41    97   1
   102    42    98   1
   103    44    99   1
   104    45   100   1
   105    46   101   1
   106    47   102   1
   107    48   103   1
   108    49   104   1
   109    50   105   1
   110    52   106   1
   111    53   107   1
   112    53   108   1
   113    54   109   1
   114    54   110   1
   115    55   111   1
@<TRIPOS>SUBSTRUCTURE
     1  MOL      1

