@<TRIPOS>MOLECULE
1xd0_ligand_072
   111   115
SMALL
GAST_HUCK
****
This file was generated by PARSER (from files_GN.cpp)

@<TRIPOS>ATOM
      1 CR1         2.0270   13.3023   36.0530 C.3         1 MOL       0.1854
      2 CR2         2.9217   14.5178   36.4308 C.3         1 MOL       0.1339
      3 CR3         3.4635   14.3757   37.8797 C.3         1 MOL       0.1144
      4 CR4         2.2928   14.1329   38.8740 C.3         1 MOL       0.1184
      5 CR5         1.4940   12.8735   38.4044 C.3         1 MOL       0.1134
      6 CR6         0.2928   12.5230   39.3111 C.3         1 MOL       0.0730
      7 OR1         2.7880   12.1104   35.8487 O.3         1 MOL      -0.3649
      8 OR2         3.9878   14.6852   35.4938 O.3         1 MOL      -0.3841
      9 OR3         4.1905   15.5520   38.2404 O.3         1 MOL      -0.3864
     10 OR4         2.8219   13.9336   40.2136 O.3         1 MOL      -0.3401
     11 OR5         1.0117   13.0689   37.0552 O.3         1 MOL      -0.3407
     12 OR6        -0.7320   13.5109   39.2281 O.3         1 MOL      -0.3924
     13 CV1         2.3345   14.8017   41.2697 C.3         1 MOL       0.1886
     14 CV2         2.9030   16.2513   41.1748 C.3         1 MOL       0.1370
     15 CV3         4.4313   16.2357   41.4674 C.3         1 MOL       0.1304
     16 CV4         4.6711   15.6206   42.8818 C.3         1 MOL       0.0334
     17 CV5         4.0429   14.1906   42.9503 C.3         1 MOL       0.1038
     18 CV6         4.0987   13.5862   44.3775 C.3         1 MOL      -0.0332
     19 OV2         2.6298   16.8640   39.9109 O.3         1 MOL      -0.3840
     20 OV3         4.9699   17.5555   41.3565 O.3         1 MOL      -0.3834
     21 NV4         6.0713   15.7711   43.3825 N.4         1 MOL       0.2370
     22 OV5         2.6476   14.2287   42.5626 O.3         1 MOL      -0.3401
     23 CQ1        11.7451   17.4047   44.3024 C.3         1 MOL       0.1883
     24 CQ2        12.2592   18.8331   44.0099 C.3         1 MOL       0.1341
     25 CQ3        12.6978   18.9396   42.5195 C.3         1 MOL       0.1144
     26 CQ4        13.7973   17.8753   42.2340 C.3         1 MOL       0.1184
     27 CQ5        13.2819   16.4503   42.6488 C.3         1 MOL       0.1134
     28 CQ6        14.3759   15.3505   42.5032 C.3         1 MOL       0.0730
     29 OQ2        11.2618   19.7934   44.3457 O.3         1 MOL      -0.3841
     30 OQ3        13.1834   20.2536   42.2627 O.3         1 MOL      -0.3864
     31 OQ4        14.4048   17.9971   40.9192 O.3         1 MOL      -0.3401
     32 OQ5        12.7919   16.4482   44.0142 O.3         1 MOL      -0.3405
     33 OQ6        14.1287   14.5364   41.3592 O.3         1 MOL      -0.3924
     34 CW1        14.0365   17.1535   39.8096 C.3         1 MOL       0.1884
     35 CW2        15.3084   16.3308   39.4378 C.3         1 MOL       0.1341
     36 CW3        15.0515   15.5066   38.1439 C.3         1 MOL       0.1141
     37 CW4        14.4478   16.3754   36.9939 C.3         1 MOL       0.1119
     38 CW5        13.2769   17.2905   37.4828 C.3         1 MOL       0.1130
     39 CW6        11.9055   16.5598   37.5645 C.3         1 MOL       0.0730
     40 OW2        16.4391   17.1914   39.2309 O.3         1 MOL      -0.3841
     41 OW3        14.1862   14.4032   38.4353 O.3         1 MOL      -0.3864
     42 OW4        15.4765   17.1913   36.4240 O.3         1 MOL      -0.3865
     43 OW5        13.6199   17.9909   38.7031 O.3         1 MOL      -0.3405
     44 OW6        10.9808   17.3033   38.3503 O.3         1 MOL      -0.3924
     45 CY1         7.0716   14.6645   43.3411 C.3         1 MOL       0.0073
     46 CY2         7.8857   14.6521   44.6680 C.3         1 MOL       0.1257
     47 OY2         7.0116   14.5674   45.8026 O.3         1 MOL      -0.3835
     48 CY3         8.8311   15.8812   44.7778 C.3         1 MOL       0.1127
     49 OY3         9.5584   15.7723   45.9978 O.3         1 MOL      -0.3864
     50 CY4         9.8046   15.9729   43.5656 C.3         1 MOL       0.0953
     51 OY4        10.5251   17.2227   43.5535 O.3         1 MOL      -0.3424
     52 CY5         9.0359   15.9179   42.1966 C.3         1 MOL       0.0162
     53 CY6         8.0511   14.7130   42.1386 C.3         1 MOL       0.0002
     54 CY7        10.0107   15.8798   40.9837 C.3         1 MOL       0.0497
     55 OY7         9.3256   15.7151   39.7391 O.3         1 MOL      -0.3946
     56 H1          1.5119   13.5241   35.1153 H           1 MOL       0.0935
     57 H2          2.3053   15.4214   36.3746 H           1 MOL       0.0671
     58 H3          4.1630   13.5351   37.9268 H           1 MOL       0.0648
     59 H4          1.6258   15.0014   38.8199 H           1 MOL       0.0651
     60 H5          2.1643   12.0080   38.4200 H           1 MOL       0.0647
     61 H6          0.6227   12.4286   40.3484 H           1 MOL       0.0584
     62 H7         -0.1273   11.5613   39.0021 H           1 MOL       0.0584
     63 H8          3.2164   12.2213   34.9736 H           1 MOL       0.2126
     64 H9          4.5959   13.9318   35.6492 H           1 MOL       0.2101
     65 H10         5.0006   15.5392   37.6845 H           1 MOL       0.2100
     66 H11        -1.1802   13.4749   40.0969 H           1 MOL       0.2095
     67 H12         1.2399   14.8626   41.2484 H           1 MOL       0.0938
     68 H13         2.4062   16.8675   41.9340 H           1 MOL       0.0672
     69 H14         4.9265   15.6267   40.7080 H           1 MOL       0.0679
     70 H15         4.0928   16.2360   43.5779 H           1 MOL       0.0903
     71 H16         4.5774   13.5222   42.2655 H           1 MOL       0.0652
     72 H17         3.7289   12.5584   44.3426 H           1 MOL       0.0257
     73 H18         3.4736   14.1706   45.0634 H           1 MOL       0.0257
     74 H19         5.1180   13.5690   44.7757 H           1 MOL       0.0257
     75 H20         1.6678   17.0644   39.9259 H           1 MOL       0.2101
     76 H21         4.1956   18.1574   41.3530 H           1 MOL       0.2102
     77 H22         5.9678   16.0216   44.3713 H           1 MOL       0.2022
     78 H23         6.4816   16.5862   42.9181 H           1 MOL       0.2022
     79 H24        11.5408   17.3563   45.3715 H           1 MOL       0.0938
     80 H25        13.1217   19.0357   44.6538 H           1 MOL       0.0671
     81 H26        11.8440   18.7656   41.8548 H           1 MOL       0.0648
     82 H27        14.6267   18.1112   42.9063 H           1 MOL       0.0651
     83 H28        12.4256   16.1718   42.0159 H           1 MOL       0.0647
     84 H29        14.3893   14.7039   43.3877 H           1 MOL       0.0584
     85 H30        15.3713   15.7843   42.3849 H           1 MOL       0.0584
     86 H31        10.8387   20.0787   43.5125 H           1 MOL       0.2101
     87 H32        12.3724   20.8107   42.2888 H           1 MOL       0.2100
     88 H33        13.2202   14.1729   41.5145 H           1 MOL       0.2095
     89 H34        13.2312   16.4600   40.0714 H           1 MOL       0.0938
     90 H35        15.5432   15.6306   40.2531 H           1 MOL       0.0671
     91 H36        15.9984   15.0732   37.7905 H           1 MOL       0.0648
     92 H37        14.0973   15.7218   36.1834 H           1 MOL       0.0647
     93 H38        13.1468   18.0701   36.7284 H           1 MOL       0.0647
     94 H39        12.0073   15.5756   38.0150 H           1 MOL       0.0584
     95 H40        11.4846   16.4385   36.5611 H           1 MOL       0.0584
     96 H41        16.8133   17.3186   40.1300 H           1 MOL       0.2101
     97 H42        14.1964   13.8435   37.6249 H           1 MOL       0.2100
     98 H43        15.2598   18.1077   36.7100 H           1 MOL       0.2100
     99 H44        10.9749   18.2040   37.9656 H           1 MOL       0.2095
    100 H45         6.5585   13.7049   43.2919 H           1 MOL       0.0877
    101 H46         8.4933   13.7449   44.6949 H           1 MOL       0.0677
    102 H47         7.2356   15.3409   46.3778 H           1 MOL       0.2102
    103 H48         8.2389   16.8005   44.8153 H           1 MOL       0.0647
    104 H49         9.1940   16.4899   46.5549 H           1 MOL       0.2100
    105 H50        10.5084   15.1311   43.6016 H           1 MOL       0.0627
    106 H51         8.4386   16.8287   42.0995 H           1 MOL       0.0351
    107 H52         7.4710   14.7345   41.2163 H           1 MOL       0.0325
    108 H53         8.6264   13.7845   42.1244 H           1 MOL       0.0325
    109 H54        10.7409   15.0727   41.1022 H           1 MOL       0.0561
    110 H55        10.5528   16.8209   40.9273 H           1 MOL       0.0561
    111 H56         9.1754   14.7492   39.6465 H           1 MOL       0.2094
@<TRIPOS>BOND
     1     2     1   1
     2     1     7   1
     3    11     1   1
     4     3     2   1
     5     2     8   1
     6     4     3   1
     7     3     9   1
     8     4     5   1
     9    10     4   1
    10     5     6   1
    11     5    11   1
    12     6    12   1
    13    13    10   1
    14    14    13   1
    15    22    13   1
    16    15    14   1
    17    14    19   1
    18    16    15   1
    19    15    20   1
    20    16    17   1
    21    21    16   1
    22    17    18   1
    23    17    22   1
    24    45    21   1
    25    23    24   1
    26    23    32   1
    27    51    23   1
    28    24    25   1
    29    24    29   1
    30    25    26   1
    31    25    30   1
    32    27    26   1
    33    26    31   1
    34    27    28   1
    35    32    27   1
    36    28    33   1
    37    31    34   1
    38    34    35   1
    39    34    43   1
    40    35    36   1
    41    35    40   1
    42    36    37   1
    43    36    41   1
    44    38    37   1
    45    37    42   1
    46    38    39   1
    47    43    38   1
    48    39    44   1
    49    46    45   1
    50    45    53   1
    51    46    47   1
    52    48    46   1
    53    48    49   1
    54    50    48   1
    55    50    51   1
    56    50    52   1
    57    52    53   1
    58    52    54   1
    59    54    55   1
    60     1    56   1
    61     2    57   1
    62     3    58   1
    63     4    59   1
    64     5    60   1
    65     6    61   1
    66     6    62   1
    67     7    63   1
    68     8    64   1
    69     9    65   1
    70    12    66   1
    71    13    67   1
    72    14    68   1
    73    15    69   1
    74    16    70   1
    75    17    71   1
    76    18    72   1
    77    18    73   1
    78    18    74   1
    79    19    75   1
    80    20    76   1
    81    21    77   1
    82    21    78   1
    83    23    79   1
    84    24    80   1
    85    25    81   1
    86    26    82   1
    87    27    83   1
    88    28    84   1
    89    28    85   1
    90    29    86   1
    91    30    87   1
    92    33    88   1
    93    34    89   1
    94    35    90   1
    95    36    91   1
    96    37    92   1
    97    38    93   1
    98    39    94   1
    99    39    95   1
   100    40    96   1
   101    41    97   1
   102    42    98   1
   103    44    99   1
   104    45   100   1
   105    46   101   1
   106    47   102   1
   107    48   103   1
   108    49   104   1
   109    50   105   1
   110    52   106   1
   111    53   107   1
   112    53   108   1
   113    54   109   1
   114    54   110   1
   115    55   111   1
@<TRIPOS>SUBSTRUCTURE
     1  MOL      1

