@<TRIPOS>MOLECULE
1xd0_ligand_059
   111   115
SMALL
GAST_HUCK
****
This file was generated by PARSER (from files_GN.cpp)

@<TRIPOS>ATOM
      1 CR1         3.4697   15.5005   39.4402 C.3         1 MOL       0.1854
      2 CR2         3.6986   16.8277   40.2088 C.3         1 MOL       0.1339
      3 CR3         2.7527   16.9156   41.4402 C.3         1 MOL       0.1144
      4 CR4         2.8625   15.6404   42.3479 C.3         1 MOL       0.1184
      5 CR5         2.6649   14.3529   41.4545 C.3         1 MOL       0.1134
      6 CR6         1.1874   13.9729   41.0751 C.3         1 MOL       0.0730
      7 OR1         4.4574   15.3420   38.4218 O.3         1 MOL      -0.3649
      8 OR2         5.0663   16.9060   40.6109 O.3         1 MOL      -0.3841
      9 OR3         1.4239   17.1447   40.9639 O.3         1 MOL      -0.3864
     10 OR4         4.1169   15.7638   43.0800 O.3         1 MOL      -0.3401
     11 OR5         3.5654   14.3552   40.3183 O.3         1 MOL      -0.3407
     12 OR6         0.2097   14.8305   41.6676 O.3         1 MOL      -0.3924
     13 CV1         4.7370   14.6637   43.7917 C.3         1 MOL       0.1886
     14 CV2         5.0989   15.0123   45.2561 C.3         1 MOL       0.1370
     15 CV3         6.2581   16.0352   45.3436 C.3         1 MOL       0.1304
     16 CV4         7.4801   15.6383   44.4532 C.3         1 MOL       0.0334
     17 CV5         6.9635   15.2726   43.0204 C.3         1 MOL       0.1038
     18 CV6         8.0548   14.7075   42.0690 C.3         1 MOL      -0.0332
     19 OV2         3.9367   15.4790   45.9454 O.3         1 MOL      -0.3840
     20 OV3         6.6446   16.1599   46.7095 O.3         1 MOL      -0.3834
     21 NV4         8.4485   16.7713   44.3729 N.4         1 MOL       0.2370
     22 OV5         5.9113   14.2775   43.0532 O.3         1 MOL      -0.3401
     23 CQ1        13.6930   16.5755   41.6219 C.3         1 MOL       0.1883
     24 CQ2        13.9933   17.4639   40.3879 C.3         1 MOL       0.1341
     25 CQ3        15.3933   17.1301   39.8116 C.3         1 MOL       0.1144
     26 CQ4        15.5826   15.6095   39.5365 C.3         1 MOL       0.1184
     27 CQ5        15.0908   14.7401   40.7469 C.3         1 MOL       0.1134
     28 CQ6        16.1361   14.5941   41.8933 C.3         1 MOL       0.0730
     29 OQ2        12.9796   17.3019   39.3900 O.3         1 MOL      -0.3841
     30 OQ3        16.3864   17.6094   40.7210 O.3         1 MOL      -0.3864
     31 OQ4        14.8946   15.3269   38.2923 O.3         1 MOL      -0.3401
     32 OQ5        13.8044   15.1905   41.2304 O.3         1 MOL      -0.3405
     33 OQ6        15.5457   13.9362   43.0159 O.3         1 MOL      -0.3924
     34 CW1        14.9920   14.0636   37.5903 C.3         1 MOL       0.1884
     35 CW2        16.4107   13.5042   37.2596 C.3         1 MOL       0.1341
     36 CW3        17.1674   14.4960   36.3419 C.3         1 MOL       0.1141
     37 CW4        16.3409   14.7752   35.0549 C.3         1 MOL       0.1119
     38 CW5        14.8680   15.1636   35.3947 C.3         1 MOL       0.1130
     39 CW6        13.9493   15.1956   34.1433 C.3         1 MOL       0.0730
     40 OW2        17.1632   13.2003   38.4315 O.3         1 MOL      -0.3841
     41 OW3        18.4416   13.9450   36.0081 O.3         1 MOL      -0.3864
     42 OW4        16.9850   15.8062   34.3061 O.3         1 MOL      -0.3865
     43 OW5        14.2873   14.2262   36.3398 O.3         1 MOL      -0.3405
     44 OW6        14.2486   16.3105   33.3071 O.3         1 MOL      -0.3924
     45 CY1         9.6008   16.9031   45.3164 C.3         1 MOL       0.0073
     46 CY2        10.3796   18.2134   44.9890 C.3         1 MOL       0.1257
     47 OY2         9.5446   19.3599   45.1289 O.3         1 MOL      -0.3835
     48 CY3        11.0438   18.1326   43.5850 C.3         1 MOL       0.1127
     49 OY3        11.7552   19.3417   43.3039 O.3         1 MOL      -0.3864
     50 CY4        12.0271   16.9256   43.4740 C.3         1 MOL       0.0953
     51 OY4        12.3455   16.8412   42.0614 O.3         1 MOL      -0.3424
     52 CY5        11.4284   15.5671   43.9977 C.3         1 MOL       0.0162
     53 CY6        10.6200   15.7269   45.3223 C.3         1 MOL       0.0002
     54 CY7        12.5012   14.4454   44.1840 C.3         1 MOL       0.0497
     55 OY7        13.6538   14.9018   44.8964 O.3         1 MOL      -0.3946
     56 H1          2.4975   15.5264   38.9397 H           1 MOL       0.0935
     57 H2          3.5020   17.6649   39.5365 H           1 MOL       0.0671
     58 H3          3.0185   17.8041   42.0240 H           1 MOL       0.0648
     59 H4          2.0793   15.6769   43.1105 H           1 MOL       0.0651
     60 H5          3.0043   13.4961   42.0336 H           1 MOL       0.0647
     61 H6          0.9654   12.9490   41.4043 H           1 MOL       0.0584
     62 H7          1.0478   14.0025   39.9963 H           1 MOL       0.0584
     63 H8          4.2752   14.4619   38.0245 H           1 MOL       0.2126
     64 H9          5.1450   17.7628   41.0788 H           1 MOL       0.2101
     65 H10         0.8814   17.2352   41.7724 H           1 MOL       0.2100
     66 H11        -0.6318   14.3203   41.6659 H           1 MOL       0.2095
     67 H12         4.0916   13.7911   43.8630 H           1 MOL       0.0938
     68 H13         5.4183   14.0855   45.7450 H           1 MOL       0.0672
     69 H14         5.8772   17.0072   45.0209 H           1 MOL       0.0679
     70 H15         7.9426   14.7411   44.8772 H           1 MOL       0.0903
     71 H16         6.5881   16.1917   42.5499 H           1 MOL       0.0652
     72 H17         7.6098   14.4382   41.1065 H           1 MOL       0.0257
     73 H18         8.5175   13.8167   42.5043 H           1 MOL       0.0257
     74 H19         8.8249   15.4582   41.8797 H           1 MOL       0.0257
     75 H20         3.2895   14.7450   45.8731 H           1 MOL       0.2101
     76 H21         6.9936   15.2804   46.9675 H           1 MOL       0.2102
     77 H22         7.9021   17.6306   44.4868 H           1 MOL       0.2022
     78 H23         8.8337   16.7725   43.4279 H           1 MOL       0.2022
     79 H24        14.4199   16.8044   42.4089 H           1 MOL       0.0938
     80 H25        13.9696   18.5116   40.6918 H           1 MOL       0.0671
     81 H26        15.5311   17.6848   38.8770 H           1 MOL       0.0648
     82 H27        16.6519   15.4510   39.3799 H           1 MOL       0.0651
     83 H28        14.9179   13.7258   40.3876 H           1 MOL       0.0647
     84 H29        16.5163   15.5703   42.2159 H           1 MOL       0.0584
     85 H30        16.9835   13.9909   41.5364 H           1 MOL       0.0584
     86 H31        12.9732   16.3483   39.1609 H           1 MOL       0.2101
     87 H32        17.2446   17.4818   40.2654 H           1 MOL       0.2100
     88 H33        16.2542   13.9337   43.6926 H           1 MOL       0.2095
     89 H34        14.4414   13.3066   38.1524 H           1 MOL       0.0938
     90 H35        16.2833   12.5599   36.7213 H           1 MOL       0.0671
     91 H36        17.3361   15.4300   36.8824 H           1 MOL       0.0648
     92 H37        16.3392   13.8662   34.4488 H           1 MOL       0.0647
     93 H38        14.8520   16.1630   35.8431 H           1 MOL       0.0647
     94 H39        12.9009   15.2760   34.4426 H           1 MOL       0.0584
     95 H40        14.0682   14.2761   33.5612 H           1 MOL       0.0584
     96 H41        16.6613   12.4794   38.8763 H           1 MOL       0.2101
     97 H42        18.9136   14.6533   35.5189 H           1 MOL       0.2100
     98 H43        16.4815   15.8748   33.4693 H           1 MOL       0.2100
     99 H44        13.6714   16.2048   32.5205 H           1 MOL       0.2095
    100 H45         9.1943   16.9950   46.3245 H           1 MOL       0.0877
    101 H46        11.1653   18.3446   45.7363 H           1 MOL       0.0677
    102 H47         9.0510   19.4510   44.2860 H           1 MOL       0.2102
    103 H48        10.2664   18.0336   42.8190 H           1 MOL       0.0647
    104 H49        11.0607   20.0068   43.1044 H           1 MOL       0.2100
    105 H50        12.9024   17.1898   44.0763 H           1 MOL       0.0627
    106 H51        10.7183   15.2108   43.2453 H           1 MOL       0.0351
    107 H52        10.0950   14.7946   45.5436 H           1 MOL       0.0325
    108 H53        11.3149   15.8930   46.1525 H           1 MOL       0.0325
    109 H54        12.8145   14.0922   43.2074 H           1 MOL       0.0561
    110 H55        12.0762   13.5854   44.7074 H           1 MOL       0.0561
    111 H56        13.3327   15.1415   45.8003 H           1 MOL       0.2094
@<TRIPOS>BOND
     1     2     1   1
     2     1     7   1
     3    11     1   1
     4     3     2   1
     5     2     8   1
     6     4     3   1
     7     3     9   1
     8     4     5   1
     9    10     4   1
    10     5     6   1
    11     5    11   1
    12     6    12   1
    13    13    10   1
    14    14    13   1
    15    22    13   1
    16    15    14   1
    17    14    19   1
    18    16    15   1
    19    15    20   1
    20    16    17   1
    21    21    16   1
    22    17    18   1
    23    17    22   1
    24    45    21   1
    25    23    24   1
    26    23    32   1
    27    51    23   1
    28    24    25   1
    29    24    29   1
    30    25    26   1
    31    25    30   1
    32    27    26   1
    33    26    31   1
    34    27    28   1
    35    32    27   1
    36    28    33   1
    37    31    34   1
    38    34    35   1
    39    34    43   1
    40    35    36   1
    41    35    40   1
    42    36    37   1
    43    36    41   1
    44    38    37   1
    45    37    42   1
    46    38    39   1
    47    43    38   1
    48    39    44   1
    49    46    45   1
    50    45    53   1
    51    46    47   1
    52    48    46   1
    53    48    49   1
    54    50    48   1
    55    50    51   1
    56    50    52   1
    57    52    53   1
    58    52    54   1
    59    54    55   1
    60     1    56   1
    61     2    57   1
    62     3    58   1
    63     4    59   1
    64     5    60   1
    65     6    61   1
    66     6    62   1
    67     7    63   1
    68     8    64   1
    69     9    65   1
    70    12    66   1
    71    13    67   1
    72    14    68   1
    73    15    69   1
    74    16    70   1
    75    17    71   1
    76    18    72   1
    77    18    73   1
    78    18    74   1
    79    19    75   1
    80    20    76   1
    81    21    77   1
    82    21    78   1
    83    23    79   1
    84    24    80   1
    85    25    81   1
    86    26    82   1
    87    27    83   1
    88    28    84   1
    89    28    85   1
    90    29    86   1
    91    30    87   1
    92    33    88   1
    93    34    89   1
    94    35    90   1
    95    36    91   1
    96    37    92   1
    97    38    93   1
    98    39    94   1
    99    39    95   1
   100    40    96   1
   101    41    97   1
   102    42    98   1
   103    44    99   1
   104    45   100   1
   105    46   101   1
   106    47   102   1
   107    48   103   1
   108    49   104   1
   109    50   105   1
   110    52   106   1
   111    53   107   1
   112    53   108   1
   113    54   109   1
   114    54   110   1
   115    55   111   1
@<TRIPOS>SUBSTRUCTURE
     1  MOL      1

