@<TRIPOS>MOLECULE
1xd0_ligand_003
   111   115
SMALL
GAST_HUCK
****
This file was generated by PARSER (from files_GN.cpp)

@<TRIPOS>ATOM
      1 CR1         2.4521   15.4201   38.4144 C.3         1 MOL       0.1854
      2 CR2         3.5446   16.4904   38.1542 C.3         1 MOL       0.1339
      3 CR3         4.6275   16.4317   39.2656 C.3         1 MOL       0.1144
      4 CR4         3.9930   16.5073   40.6947 C.3         1 MOL       0.1184
      5 CR5         2.8034   15.4994   40.8393 C.3         1 MOL       0.1134
      6 CR6         1.9366   15.7459   42.1032 C.3         1 MOL       0.0730
      7 OR1         2.9452   14.0881   38.2550 O.3         1 MOL      -0.3649
      8 OR2         4.1114   16.2861   36.8580 O.3         1 MOL      -0.3841
      9 OR3         5.5517   17.5041   39.1054 O.3         1 MOL      -0.3864
     10 OR4         4.9253   16.4009   41.8012 O.3         1 MOL      -0.3401
     11 OR5         1.8869   15.5997   39.7260 O.3         1 MOL      -0.3407
     12 OR6         2.5055   15.2050   43.2865 O.3         1 MOL      -0.3924
     13 CV1         6.0519   15.4956   41.7427 C.3         1 MOL       0.1886
     14 CV2         6.4596   14.9639   43.1427 C.3         1 MOL       0.1370
     15 CV3         7.0759   16.0863   44.0237 C.3         1 MOL       0.1304
     16 CV4         8.2374   16.8043   43.2714 C.3         1 MOL       0.0334
     17 CV5         7.7414   17.2672   41.8590 C.3         1 MOL       0.1038
     18 CV6         8.8613   17.8484   40.9547 C.3         1 MOL      -0.0332
     19 OV2         5.3326   14.3686   43.7786 O.3         1 MOL      -0.3840
     20 OV3         7.5406   15.5107   45.2463 O.3         1 MOL      -0.3834
     21 NV4         8.7694   17.9563   44.0677 N.4         1 MOL       0.2370
     22 OV5         7.1867   16.1424   41.1340 O.3         1 MOL      -0.3401
     23 CQ1        13.8814   18.0849   41.2812 C.3         1 MOL       0.1883
     24 CQ2        13.4220   18.4376   39.8448 C.3         1 MOL       0.1341
     25 CQ3        13.3964   17.1879   38.9200 C.3         1 MOL       0.1144
     26 CQ4        14.7084   16.3410   39.0157 C.3         1 MOL       0.1184
     27 CQ5        15.0369   16.0748   40.5192 C.3         1 MOL       0.1134
     28 CQ6        16.3727   15.3216   40.7502 C.3         1 MOL       0.0730
     29 OQ2        12.1282   19.0443   39.9036 O.3         1 MOL      -0.3841
     30 OQ3        13.1865   17.6477   37.5850 O.3         1 MOL      -0.3864
     31 OQ4        14.6411   15.0450   38.3735 O.3         1 MOL      -0.3401
     32 OQ5        15.0953   17.3088   41.2677 O.3         1 MOL      -0.3405
     33 OQ6        17.4875   16.0124   40.1987 O.3         1 MOL      -0.3924
     34 CW1        14.7308   14.7847   36.9562 C.3         1 MOL       0.1884
     35 CW2        16.0996   15.1199   36.2854 C.3         1 MOL       0.1341
     36 CW3        16.0518   14.8417   34.7530 C.3         1 MOL       0.1141
     37 CW4        14.7837   15.4524   34.0812 C.3         1 MOL       0.1119
     38 CW5        13.4650   15.1206   34.8607 C.3         1 MOL       0.1130
     39 CW6        12.8758   13.7015   34.6067 C.3         1 MOL       0.0730
     40 OW2        16.5117   16.4688   36.4924 O.3         1 MOL      -0.3841
     41 OW3        16.1323   13.4306   34.5131 O.3         1 MOL      -0.3864
     42 OW4        14.9371   16.8779   34.0163 O.3         1 MOL      -0.3865
     43 OW5        13.6153   15.3942   36.2733 O.3         1 MOL      -0.3405
     44 OW6        11.9913   13.6856   33.4860 O.3         1 MOL      -0.3924
     45 CY1         9.9570   17.8621   44.9875 C.3         1 MOL       0.0073
     46 CY2        10.9183   19.0697   44.7549 C.3         1 MOL       0.1257
     47 OY2        10.1878   20.2957   44.8131 O.3         1 MOL      -0.3835
     48 CY3        11.6842   18.9280   43.4061 C.3         1 MOL       0.1127
     49 OY3        12.5725   20.0383   43.2537 O.3         1 MOL      -0.3864
     50 CY4        12.4946   17.5949   43.3101 C.3         1 MOL       0.0953
     51 OY4        12.8310   17.3483   41.9300 O.3         1 MOL      -0.3424
     52 CY5        11.7009   16.3201   43.7611 C.3         1 MOL       0.0162
     53 CY6        10.8242   16.5643   45.0270 C.3         1 MOL       0.0002
     54 CY7        12.6569   15.0884   43.9262 C.3         1 MOL       0.0497
     55 OY7        12.4580   14.3470   45.1326 O.3         1 MOL      -0.3946
     56 H1          1.6427   15.5606   37.6915 H           1 MOL       0.0935
     57 H2          3.0666   17.4741   38.1640 H           1 MOL       0.0671
     58 H3          5.1762   15.4949   39.1522 H           1 MOL       0.0648
     59 H4          3.5672   17.5086   40.7868 H           1 MOL       0.0651
     60 H5          3.1914   14.4772   40.8888 H           1 MOL       0.0647
     61 H6          0.9628   15.2675   41.9713 H           1 MOL       0.0584
     62 H7          1.7690   16.8165   42.2470 H           1 MOL       0.0584
     63 H8          3.1798   14.0101   37.3062 H           1 MOL       0.2126
     64 H9          4.4456   17.1627   36.5748 H           1 MOL       0.2101
     65 H10         5.9829   17.3605   38.2362 H           1 MOL       0.2100
     66 H11         3.2562   15.7949   43.5140 H           1 MOL       0.2095
     67 H12         5.7974   14.6219   41.1359 H           1 MOL       0.0938
     68 H13         7.2084   14.1774   42.9963 H           1 MOL       0.0672
     69 H14         6.2942   16.8127   44.2703 H           1 MOL       0.0679
     70 H15         9.0088   16.0588   43.0937 H           1 MOL       0.0903
     71 H16         6.9791   18.0456   41.9799 H           1 MOL       0.0652
     72 H17         8.4789   17.9968   39.9420 H           1 MOL       0.0257
     73 H18         9.7154   17.1682   40.9048 H           1 MOL       0.0257
     74 H19         9.1938   18.8173   41.3290 H           1 MOL       0.0257
     75 H20         5.6923   13.5822   44.2376 H           1 MOL       0.2101
     76 H21         7.7127   16.2675   45.8445 H           1 MOL       0.2102
     77 H22         7.9961   18.2754   44.6547 H           1 MOL       0.2022
     78 H23         8.9484   18.7316   43.4311 H           1 MOL       0.2022
     79 H24        14.1058   19.0154   41.8013 H           1 MOL       0.0938
     80 H25        14.1175   19.1722   39.4318 H           1 MOL       0.0671
     81 H26        12.5456   16.5521   39.1946 H           1 MOL       0.0648
     82 H27        15.5317   16.9199   38.5978 H           1 MOL       0.0651
     83 H28        14.2493   15.4380   40.9331 H           1 MOL       0.0647
     84 H29        16.3253   14.3296   40.2981 H           1 MOL       0.0584
     85 H30        16.5399   15.1922   41.8224 H           1 MOL       0.0584
     86 H31        11.9461   19.4033   39.0085 H           1 MOL       0.2101
     87 H32        12.4095   18.2457   37.6297 H           1 MOL       0.2100
     88 H33        17.6491   16.7865   40.7787 H           1 MOL       0.2095
     89 H34        14.6030   13.6987   36.8842 H           1 MOL       0.0938
     90 H35        16.8701   14.4889   36.7334 H           1 MOL       0.0671
     91 H36        16.9443   15.2824   34.2873 H           1 MOL       0.0648
     92 H37        14.7126   15.0922   33.0461 H           1 MOL       0.0647
     93 H38        12.7003   15.8231   34.5170 H           1 MOL       0.0647
     94 H39        12.2999   13.4015   35.4859 H           1 MOL       0.0584
     95 H40        13.6670   12.9665   34.4474 H           1 MOL       0.0584
     96 H41        15.8000   17.0312   36.1096 H           1 MOL       0.2101
     97 H42        16.2530   13.3422   33.5437 H           1 MOL       0.2100
     98 H43        14.2456   17.1792   33.3932 H           1 MOL       0.2100
     99 H44        12.5599   13.8235   32.7010 H           1 MOL       0.2095
    100 H45         9.5527   17.9791   46.0008 H           1 MOL       0.0877
    101 H46        11.6532   19.1047   45.5674 H           1 MOL       0.0677
    102 H47        10.8615   20.9949   44.6851 H           1 MOL       0.2102
    103 H48        10.9711   18.9703   42.5831 H           1 MOL       0.0647
    104 H49        12.0582   20.7228   42.7787 H           1 MOL       0.2100
    105 H50        13.3937   17.6923   43.9286 H           1 MOL       0.0627
    106 H51        11.0198   16.0693   42.9494 H           1 MOL       0.0351
    107 H52        10.1659   15.7071   45.1961 H           1 MOL       0.0325
    108 H53        11.4898   16.6182   45.8960 H           1 MOL       0.0325
    109 H54        13.7089   15.3912   43.9018 H           1 MOL       0.0561
    110 H55        12.4924   14.3958   43.0964 H           1 MOL       0.0561
    111 H56        12.7660   14.9480   45.8490 H           1 MOL       0.2094
@<TRIPOS>BOND
     1     2     1   1
     2     1     7   1
     3    11     1   1
     4     3     2   1
     5     2     8   1
     6     4     3   1
     7     3     9   1
     8     4     5   1
     9    10     4   1
    10     5     6   1
    11     5    11   1
    12     6    12   1
    13    13    10   1
    14    14    13   1
    15    22    13   1
    16    15    14   1
    17    14    19   1
    18    16    15   1
    19    15    20   1
    20    16    17   1
    21    21    16   1
    22    17    18   1
    23    17    22   1
    24    45    21   1
    25    23    24   1
    26    23    32   1
    27    51    23   1
    28    24    25   1
    29    24    29   1
    30    25    26   1
    31    25    30   1
    32    27    26   1
    33    26    31   1
    34    27    28   1
    35    32    27   1
    36    28    33   1
    37    31    34   1
    38    34    35   1
    39    34    43   1
    40    35    36   1
    41    35    40   1
    42    36    37   1
    43    36    41   1
    44    38    37   1
    45    37    42   1
    46    38    39   1
    47    43    38   1
    48    39    44   1
    49    46    45   1
    50    45    53   1
    51    46    47   1
    52    48    46   1
    53    48    49   1
    54    50    48   1
    55    50    51   1
    56    50    52   1
    57    52    53   1
    58    52    54   1
    59    54    55   1
    60     1    56   1
    61     2    57   1
    62     3    58   1
    63     4    59   1
    64     5    60   1
    65     6    61   1
    66     6    62   1
    67     7    63   1
    68     8    64   1
    69     9    65   1
    70    12    66   1
    71    13    67   1
    72    14    68   1
    73    15    69   1
    74    16    70   1
    75    17    71   1
    76    18    72   1
    77    18    73   1
    78    18    74   1
    79    19    75   1
    80    20    76   1
    81    21    77   1
    82    21    78   1
    83    23    79   1
    84    24    80   1
    85    25    81   1
    86    26    82   1
    87    27    83   1
    88    28    84   1
    89    28    85   1
    90    29    86   1
    91    30    87   1
    92    33    88   1
    93    34    89   1
    94    35    90   1
    95    36    91   1
    96    37    92   1
    97    38    93   1
    98    39    94   1
    99    39    95   1
   100    40    96   1
   101    41    97   1
   102    42    98   1
   103    44    99   1
   104    45   100   1
   105    46   101   1
   106    47   102   1
   107    48   103   1
   108    49   104   1
   109    50   105   1
   110    52   106   1
   111    53   107   1
   112    53   108   1
   113    54   109   1
   114    54   110   1
   115    55   111   1
@<TRIPOS>SUBSTRUCTURE
     1  MOL      1

