@<TRIPOS>MOLECULE
1xd0_ligand_054
   111   115
SMALL
GAST_HUCK
****
This file was generated by PARSER (from files_GN.cpp)

@<TRIPOS>ATOM
      1 CR1        15.6990   15.3632   40.3779 C.3         1 MOL       0.1854
      2 CR2        15.7016   15.2932   41.9238 C.3         1 MOL       0.1339
      3 CR3        14.2964   15.6716   42.4780 C.3         1 MOL       0.1144
      4 CR4        13.8205   17.0439   41.9225 C.3         1 MOL       0.1184
      5 CR5        13.9312   17.0565   40.3647 C.3         1 MOL       0.1134
      6 CR6        13.6434   18.4509   39.7545 C.3         1 MOL       0.0730
      7 OR1        14.9046   14.3206   39.8098 O.3         1 MOL      -0.3649
      8 OR2        16.0924   13.9847   42.3470 O.3         1 MOL      -0.3841
      9 OR3        14.3264   15.7182   43.9073 O.3         1 MOL      -0.3864
     10 OR4        12.4428   17.2341   42.3190 O.3         1 MOL      -0.3401
     11 OR5        15.2522   16.6609   39.9337 O.3         1 MOL      -0.3407
     12 OR6        14.1201   18.5368   38.4117 O.3         1 MOL      -0.3924
     13 CV1        11.8897   18.5647   42.3779 C.3         1 MOL       0.1886
     14 CV2        11.5650   18.9798   43.8367 C.3         1 MOL       0.1370
     15 CV3        10.4444   18.0854   44.4329 C.3         1 MOL       0.1304
     16 CV4         9.1953   18.0110   43.4997 C.3         1 MOL       0.0334
     17 CV5         9.5867   17.7885   42.0009 C.3         1 MOL       0.1038
     18 CV6         8.4365   18.0852   41.0115 C.3         1 MOL      -0.0332
     19 OV2        12.7427   18.9201   44.6446 O.3         1 MOL      -0.3840
     20 OV3        10.0565   18.6304   45.6993 O.3         1 MOL      -0.3834
     21 NV4         8.0890   17.1382   44.0110 N.4         1 MOL       0.2370
     22 OV5        10.6836   18.6244   41.5884 O.3         1 MOL      -0.3401
     23 CQ1         3.9557   15.4619   41.5550 C.3         1 MOL       0.1883
     24 CQ2         2.5258   15.0478   41.1025 C.3         1 MOL       0.1341
     25 CQ3         2.5817   14.1337   39.8449 C.3         1 MOL       0.1144
     26 CQ4         3.4290   14.7704   38.7046 C.3         1 MOL       0.1184
     27 CQ5         4.8061   15.2610   39.2563 C.3         1 MOL       0.1134
     28 CQ6         5.6185   16.0995   38.2411 C.3         1 MOL       0.0730
     29 OQ2         1.8405   14.4006   42.1785 O.3         1 MOL      -0.3841
     30 OQ3         1.2432   13.8935   39.4002 O.3         1 MOL      -0.3864
     31 OQ4         3.6688   14.0104   37.4933 O.3         1 MOL      -0.3401
     32 OQ5         4.6581   16.0597   40.4535 O.3         1 MOL      -0.3405
     33 OQ6         6.2616   15.2779   37.2635 O.3         1 MOL      -0.3924
     34 CW1         3.4123   12.6012   37.2743 C.3         1 MOL       0.1884
     35 CW2         4.6993   11.7363   37.1689 C.3         1 MOL       0.1341
     36 CW3         5.5040   12.0770   35.8857 C.3         1 MOL       0.1141
     37 CW4         4.5952   12.0069   34.6281 C.3         1 MOL       0.1119
     38 CW5         3.3057   12.8621   34.8312 C.3         1 MOL       0.1130
     39 CW6         2.2797   12.7062   33.6801 C.3         1 MOL       0.0730
     40 OW2         5.5152   11.8690   38.3304 O.3         1 MOL      -0.3841
     41 OW3         6.6029   11.1765   35.7571 O.3         1 MOL      -0.3864
     42 OW4         5.3267   12.4380   33.4791 O.3         1 MOL      -0.3865
     43 OW5         2.6435   12.4726   36.0575 O.3         1 MOL      -0.3405
     44 OW6         2.7744   13.2204   32.4477 O.3         1 MOL      -0.3924
     45 CY1         8.1908   15.6817   44.3513 C.3         1 MOL       0.0073
     46 CY2         8.3107   14.6721   43.1664 C.3         1 MOL       0.1257
     47 OY2         9.5281   14.8391   42.4489 O.3         1 MOL      -0.3835
     48 CY3         7.0621   14.7216   42.2426 C.3         1 MOL       0.1127
     49 OY3         7.2483   13.8001   41.1704 O.3         1 MOL      -0.3864
     50 CY4         5.7611   14.3919   43.0331 C.3         1 MOL       0.0953
     51 OY4         4.6042   14.3152   42.1613 O.3         1 MOL      -0.3424
     52 CY5         5.6020   15.2504   44.3378 C.3         1 MOL       0.0162
     53 CY6         6.9256   15.2851   45.1737 C.3         1 MOL       0.0002
     54 CY7         4.4414   14.7420   45.2526 C.3         1 MOL       0.0497
     55 OY7         3.1916   14.6493   44.5834 O.3         1 MOL      -0.3946
     56 H1         16.7224   15.2223   40.0229 H           1 MOL       0.0935
     57 H2         16.4421   16.0066   42.2976 H           1 MOL       0.0671
     58 H3         13.5773   14.8945   42.1909 H           1 MOL       0.0648
     59 H4         14.4781   17.8098   42.3426 H           1 MOL       0.0651
     60 H5         13.1955   16.3608   39.9464 H           1 MOL       0.0647
     61 H6         14.1394   19.2303   40.3382 H           1 MOL       0.0584
     62 H7         12.5719   18.6546   39.7413 H           1 MOL       0.0584
     63 H8         14.7676   14.5833   38.8766 H           1 MOL       0.2126
     64 H9         16.5039   14.1048   43.2299 H           1 MOL       0.2101
     65 H10        14.6108   14.8220   44.1961 H           1 MOL       0.2100
     66 H11        13.4628   18.0485   37.8735 H           1 MOL       0.2095
     67 H12        12.5722   19.3076   41.9575 H           1 MOL       0.0938
     68 H13        11.2164   20.0214   43.8367 H           1 MOL       0.0672
     69 H14        10.8516   17.0868   44.5818 H           1 MOL       0.0679
     70 H15         8.7559   19.0221   43.5362 H           1 MOL       0.0903
     71 H16         9.8896   16.7657   41.8397 H           1 MOL       0.0652
     72 H17         8.7183   17.7412   40.0132 H           1 MOL       0.0257
     73 H18         8.2222   19.1568   40.9540 H           1 MOL       0.0257
     74 H19         7.5182   17.5768   41.2964 H           1 MOL       0.0257
     75 H20        12.9806   19.8593   44.8220 H           1 MOL       0.2101
     76 H21        10.5478   18.1036   46.3541 H           1 MOL       0.2102
     77 H22         7.2884   17.2566   43.3867 H           1 MOL       0.2022
     78 H23         7.8188   17.5818   44.8938 H           1 MOL       0.2022
     79 H24         3.8365   16.2463   42.3029 H           1 MOL       0.0938
     80 H25         1.9657   15.9577   40.8567 H           1 MOL       0.0671
     81 H26         3.0230   13.1763   40.1299 H           1 MOL       0.0648
     82 H27         2.8823   15.6593   38.3771 H           1 MOL       0.0651
     83 H28         5.3897   14.3848   39.5152 H           1 MOL       0.0647
     84 H29         6.4019   16.6666   38.7505 H           1 MOL       0.0584
     85 H30         4.9787   16.8232   37.7234 H           1 MOL       0.0584
     86 H31         0.9576   14.1482   41.8260 H           1 MOL       0.2101
     87 H32         0.8843   14.7738   39.1550 H           1 MOL       0.2100
     88 H33         6.9500   14.7833   37.7591 H           1 MOL       0.2095
     89 H34         2.7846   12.1825   38.0599 H           1 MOL       0.0938
     90 H35         4.3959   10.6853   37.1176 H           1 MOL       0.0671
     91 H36         5.9064   13.0874   35.9766 H           1 MOL       0.0648
     92 H37         4.3081   10.9644   34.4609 H           1 MOL       0.0647
     93 H38         3.5804   13.9221   34.8882 H           1 MOL       0.0647
     94 H39         1.3657   13.2480   33.9305 H           1 MOL       0.0584
     95 H40         2.0244   11.6534   33.5419 H           1 MOL       0.0584
     96 H41         6.0640   12.6625   38.1682 H           1 MOL       0.2101
     97 H42         7.1654   11.5556   35.0496 H           1 MOL       0.2100
     98 H43         5.5442   13.3803   33.6404 H           1 MOL       0.2100
     99 H44         2.8522   14.1879   32.5851 H           1 MOL       0.2095
    100 H45         9.0548   15.5397   45.0082 H           1 MOL       0.0877
    101 H46         8.3669   13.6654   43.5897 H           1 MOL       0.0677
    102 H47         9.4826   14.2115   41.7037 H           1 MOL       0.2102
    103 H48         6.9828   15.7133   41.8063 H           1 MOL       0.0647
    104 H49         6.6006   13.0730   41.3014 H           1 MOL       0.2100
    105 H50         5.8821   13.3596   43.3753 H           1 MOL       0.0627
    106 H51         5.3746   16.2763   44.0465 H           1 MOL       0.0351
    107 H52         6.8120   15.9829   46.0066 H           1 MOL       0.0325
    108 H53         7.1012   14.3008   45.6159 H           1 MOL       0.0325
    109 H54         4.3119   15.4180   46.1016 H           1 MOL       0.0561
    110 H55         4.6781   13.7509   45.6437 H           1 MOL       0.0561
    111 H56         3.0364   15.5429   44.2132 H           1 MOL       0.2094
@<TRIPOS>BOND
     1     2     1   1
     2     1     7   1
     3    11     1   1
     4     3     2   1
     5     2     8   1
     6     4     3   1
     7     3     9   1
     8     4     5   1
     9    10     4   1
    10     5     6   1
    11     5    11   1
    12     6    12   1
    13    13    10   1
    14    14    13   1
    15    22    13   1
    16    15    14   1
    17    14    19   1
    18    16    15   1
    19    15    20   1
    20    16    17   1
    21    21    16   1
    22    17    18   1
    23    17    22   1
    24    45    21   1
    25    23    24   1
    26    23    32   1
    27    51    23   1
    28    24    25   1
    29    24    29   1
    30    25    26   1
    31    25    30   1
    32    27    26   1
    33    26    31   1
    34    27    28   1
    35    32    27   1
    36    28    33   1
    37    31    34   1
    38    34    35   1
    39    34    43   1
    40    35    36   1
    41    35    40   1
    42    36    37   1
    43    36    41   1
    44    38    37   1
    45    37    42   1
    46    38    39   1
    47    43    38   1
    48    39    44   1
    49    46    45   1
    50    45    53   1
    51    46    47   1
    52    48    46   1
    53    48    49   1
    54    50    48   1
    55    50    51   1
    56    50    52   1
    57    52    53   1
    58    52    54   1
    59    54    55   1
    60     1    56   1
    61     2    57   1
    62     3    58   1
    63     4    59   1
    64     5    60   1
    65     6    61   1
    66     6    62   1
    67     7    63   1
    68     8    64   1
    69     9    65   1
    70    12    66   1
    71    13    67   1
    72    14    68   1
    73    15    69   1
    74    16    70   1
    75    17    71   1
    76    18    72   1
    77    18    73   1
    78    18    74   1
    79    19    75   1
    80    20    76   1
    81    21    77   1
    82    21    78   1
    83    23    79   1
    84    24    80   1
    85    25    81   1
    86    26    82   1
    87    27    83   1
    88    28    84   1
    89    28    85   1
    90    29    86   1
    91    30    87   1
    92    33    88   1
    93    34    89   1
    94    35    90   1
    95    36    91   1
    96    37    92   1
    97    38    93   1
    98    39    94   1
    99    39    95   1
   100    40    96   1
   101    41    97   1
   102    42    98   1
   103    44    99   1
   104    45   100   1
   105    46   101   1
   106    47   102   1
   107    48   103   1
   108    49   104   1
   109    50   105   1
   110    52   106   1
   111    53   107   1
   112    53   108   1
   113    54   109   1
   114    54   110   1
   115    55   111   1
@<TRIPOS>SUBSTRUCTURE
     1  MOL      1

