@<TRIPOS>MOLECULE
1xd0_ligand_014
   111   115
SMALL
GAST_HUCK
****
This file was generated by PARSER (from files_GN.cpp)

@<TRIPOS>ATOM
      1 CR1        15.4626   14.7331   39.4012 C.3         1 MOL       0.1854
      2 CR2        15.8280   16.2180   39.6393 C.3         1 MOL       0.1339
      3 CR3        15.0638   16.7619   40.8807 C.3         1 MOL       0.1144
      4 CR4        13.5321   16.4934   40.7793 C.3         1 MOL       0.1184
      5 CR5        13.2152   15.0280   40.3350 C.3         1 MOL       0.1134
      6 CR6        11.7379   14.8404   39.9015 C.3         1 MOL       0.0730
      7 OR1        15.9191   13.8939   40.4630 O.3         1 MOL      -0.3649
      8 OR2        17.2371   16.3558   39.8016 O.3         1 MOL      -0.3841
      9 OR3        15.3093   18.1664   40.9782 O.3         1 MOL      -0.3864
     10 OR4        12.7180   16.8862   41.9229 O.3         1 MOL      -0.3401
     11 OR5        14.0396   14.6033   39.2186 O.3         1 MOL      -0.3407
     12 OR6        11.5573   14.9121   38.4873 O.3         1 MOL      -0.3924
     13 CV1        13.1796   17.1003   43.2833 C.3         1 MOL       0.1886
     14 CV2        13.1701   15.8969   44.2610 C.3         1 MOL       0.1370
     15 CV3        11.7118   15.3885   44.4930 C.3         1 MOL       0.1304
     16 CV4        10.7134   16.5298   44.9137 C.3         1 MOL       0.0334
     17 CV5        10.9732   17.8236   44.0663 C.3         1 MOL       0.1038
     18 CV6        10.3717   19.0916   44.7171 C.3         1 MOL      -0.0332
     19 OV2        14.0339   14.8663   43.7857 O.3         1 MOL      -0.3840
     20 OV3        11.7631   14.3646   45.4934 O.3         1 MOL      -0.3834
     21 NV4         9.2184   16.2988   44.9223 N.4         1 MOL       0.2370
     22 OV5        12.3721   18.1256   43.8803 O.3         1 MOL      -0.3401
     23 CQ1         3.8224   15.6687   41.8397 C.3         1 MOL       0.1883
     24 CQ2         4.1444   15.6271   40.3221 C.3         1 MOL       0.1341
     25 CQ3         2.9121   15.1947   39.4879 C.3         1 MOL       0.1144
     26 CQ4         1.6009   15.9636   39.8580 C.3         1 MOL       0.1184
     27 CQ5         1.4672   16.2846   41.3879 C.3         1 MOL       0.1134
     28 CQ6         0.5960   15.2621   42.1586 C.3         1 MOL       0.0730
     29 OQ2         4.6145   16.9104   39.8989 O.3         1 MOL      -0.3841
     30 OQ3         2.7301   13.7790   39.5971 O.3         1 MOL      -0.3864
     31 OQ4         1.4821   17.2181   39.1502 O.3         1 MOL      -0.3401
     32 OQ5         2.7170   16.5681   42.0578 O.3         1 MOL      -0.3405
     33 OQ6         1.0827   13.9257   42.0799 O.3         1 MOL      -0.3924
     34 CW1         0.6949   17.2804   37.9349 C.3         1 MOL       0.1884
     35 CW2         0.1496   18.7198   37.7389 C.3         1 MOL       0.1341
     36 CW3        -0.9702   19.0210   38.7739 C.3         1 MOL       0.1141
     37 CW4        -2.0770   17.9279   38.7558 C.3         1 MOL       0.1119
     38 CW5        -1.4342   16.5147   38.8900 C.3         1 MOL       0.1130
     39 CW6        -2.4546   15.3583   38.7370 C.3         1 MOL       0.0730
     40 OW2         1.1752   19.6979   37.8806 O.3         1 MOL      -0.3841
     41 OW3        -1.5298   20.3115   38.5317 O.3         1 MOL      -0.3864
     42 OW4        -2.9985   18.1425   39.8274 O.3         1 MOL      -0.3865
     43 OW5        -0.4062   16.3426   37.8856 O.3         1 MOL      -0.3405
     44 OW6        -1.8599   14.1016   39.0525 O.3         1 MOL      -0.3924
     45 CY1         8.5496   14.9726   44.7472 C.3         1 MOL       0.0073
     46 CY2         8.3256   14.5692   43.2584 C.3         1 MOL       0.1257
     47 OY2         9.5349   14.5954   42.5221 O.3         1 MOL      -0.3835
     48 CY3         7.2729   15.4613   42.5466 C.3         1 MOL       0.1127
     49 OY3         7.2039   15.1033   41.1721 O.3         1 MOL      -0.3864
     50 CY4         5.8865   15.3114   43.2338 C.3         1 MOL       0.0953
     51 OY4         4.9318   16.2037   42.6001 O.3         1 MOL      -0.3424
     52 CY5         5.9802   15.6775   44.7580 C.3         1 MOL       0.0162
     53 CY6         7.1655   14.9319   45.4721 C.3         1 MOL       0.0002
     54 CY7         4.6203   15.3648   45.4630 C.3         1 MOL       0.0497
     55 OY7         4.4913   15.9873   46.7394 O.3         1 MOL      -0.3946
     56 H1         15.9523   14.3979   38.4862 H           1 MOL       0.0935
     57 H2         15.5405   16.7984   38.7560 H           1 MOL       0.0671
     58 H3         15.4729   16.2770   41.7699 H           1 MOL       0.0648
     59 H4         13.1812   17.1370   39.9708 H           1 MOL       0.0651
     60 H5         13.3988   14.3530   41.1728 H           1 MOL       0.0647
     61 H6         11.1069   15.6005   40.3595 H           1 MOL       0.0584
     62 H7         11.3837   13.8588   40.2293 H           1 MOL       0.0584
     63 H8         16.8976   13.8697   40.3903 H           1 MOL       0.2126
     64 H9         17.3629   17.1866   40.3091 H           1 MOL       0.2101
     65 H10        15.5185   18.3376   41.9185 H           1 MOL       0.2100
     66 H11        11.8460   15.8130   38.2289 H           1 MOL       0.2095
     67 H12        14.1839   17.5169   43.2685 H           1 MOL       0.0938
     68 H13        13.5745   16.2411   45.2138 H           1 MOL       0.0672
     69 H14        11.3856   14.9362   43.5592 H           1 MOL       0.0679
     70 H15        10.9730   16.7649   45.9413 H           1 MOL       0.0903
     71 H16        10.5139   17.7054   43.0835 H           1 MOL       0.0652
     72 H17        10.6007   19.9682   44.1058 H           1 MOL       0.0257
     73 H18        10.8062   19.2405   45.7071 H           1 MOL       0.0257
     74 H19         9.2856   19.0099   44.8143 H           1 MOL       0.0257
     75 H20        14.4752   14.4937   44.5808 H           1 MOL       0.2101
     76 H21        12.1982   14.7806   46.2679 H           1 MOL       0.2102
     77 H22         8.8190   16.9217   44.2123 H           1 MOL       0.2022
     78 H23         8.8944   16.6690   45.8330 H           1 MOL       0.2022
     79 H24         3.5389   14.6750   42.1988 H           1 MOL       0.0938
     80 H25         4.9442   14.9060   40.1383 H           1 MOL       0.0671
     81 H26         3.1413   15.3729   38.4352 H           1 MOL       0.0648
     82 H27         0.7593   15.3206   39.5762 H           1 MOL       0.0651
     83 H28         0.9074   17.2200   41.4821 H           1 MOL       0.0647
     84 H29        -0.4159   15.2752   41.7477 H           1 MOL       0.0584
     85 H30         0.5308   15.5581   43.2076 H           1 MOL       0.0584
     86 H31         3.8921   17.5393   40.1125 H           1 MOL       0.2101
     87 H32         2.4932   13.6067   40.5303 H           1 MOL       0.2100
     88 H33         0.2985   13.3681   42.2556 H           1 MOL       0.2095
     89 H34         1.3488   17.0566   37.0887 H           1 MOL       0.0938
     90 H35        -0.2627   18.8078   36.7291 H           1 MOL       0.0671
     91 H36        -0.5272   19.0546   39.7753 H           1 MOL       0.0648
     92 H37        -2.6271   17.9891   37.8122 H           1 MOL       0.0647
     93 H38        -0.9902   16.4210   39.8887 H           1 MOL       0.0647
     94 H39        -2.8257   15.3109   37.7113 H           1 MOL       0.0584
     95 H40        -3.3053   15.5096   39.4046 H           1 MOL       0.0584
     96 H41         2.0020   19.1972   38.0631 H           1 MOL       0.2101
     97 H42        -2.2371   20.1708   37.8636 H           1 MOL       0.2100
     98 H43        -3.7574   18.6233   39.4349 H           1 MOL       0.2100
     99 H44        -1.8616   14.0402   40.0328 H           1 MOL       0.2095
    100 H45         9.1711   14.2120   45.2246 H           1 MOL       0.0877
    101 H46         7.9774   13.5331   43.2376 H           1 MOL       0.0677
    102 H47         9.3242   14.1889   41.6449 H           1 MOL       0.2102
    103 H48         7.5882   16.5079   42.5888 H           1 MOL       0.0647
    104 H49         6.9941   14.1458   41.1657 H           1 MOL       0.2100
    105 H50         5.5835   14.2581   43.1498 H           1 MOL       0.0627
    106 H51         6.1648   16.7524   44.8415 H           1 MOL       0.0351
    107 H52         7.2895   15.3275   46.4838 H           1 MOL       0.0325
    108 H53         6.8864   13.8803   45.5785 H           1 MOL       0.0325
    109 H54         4.4938   14.2835   45.5875 H           1 MOL       0.0561
    110 H55         3.7883   15.7284   44.8554 H           1 MOL       0.0561
    111 H56         5.4066   16.0725   47.0815 H           1 MOL       0.2094
@<TRIPOS>BOND
     1     2     1   1
     2     1     7   1
     3    11     1   1
     4     3     2   1
     5     2     8   1
     6     4     3   1
     7     3     9   1
     8     4     5   1
     9    10     4   1
    10     5     6   1
    11     5    11   1
    12     6    12   1
    13    13    10   1
    14    14    13   1
    15    22    13   1
    16    15    14   1
    17    14    19   1
    18    16    15   1
    19    15    20   1
    20    16    17   1
    21    21    16   1
    22    17    18   1
    23    17    22   1
    24    45    21   1
    25    23    24   1
    26    23    32   1
    27    51    23   1
    28    24    25   1
    29    24    29   1
    30    25    26   1
    31    25    30   1
    32    27    26   1
    33    26    31   1
    34    27    28   1
    35    32    27   1
    36    28    33   1
    37    31    34   1
    38    34    35   1
    39    34    43   1
    40    35    36   1
    41    35    40   1
    42    36    37   1
    43    36    41   1
    44    38    37   1
    45    37    42   1
    46    38    39   1
    47    43    38   1
    48    39    44   1
    49    46    45   1
    50    45    53   1
    51    46    47   1
    52    48    46   1
    53    48    49   1
    54    50    48   1
    55    50    51   1
    56    50    52   1
    57    52    53   1
    58    52    54   1
    59    54    55   1
    60     1    56   1
    61     2    57   1
    62     3    58   1
    63     4    59   1
    64     5    60   1
    65     6    61   1
    66     6    62   1
    67     7    63   1
    68     8    64   1
    69     9    65   1
    70    12    66   1
    71    13    67   1
    72    14    68   1
    73    15    69   1
    74    16    70   1
    75    17    71   1
    76    18    72   1
    77    18    73   1
    78    18    74   1
    79    19    75   1
    80    20    76   1
    81    21    77   1
    82    21    78   1
    83    23    79   1
    84    24    80   1
    85    25    81   1
    86    26    82   1
    87    27    83   1
    88    28    84   1
    89    28    85   1
    90    29    86   1
    91    30    87   1
    92    33    88   1
    93    34    89   1
    94    35    90   1
    95    36    91   1
    96    37    92   1
    97    38    93   1
    98    39    94   1
    99    39    95   1
   100    40    96   1
   101    41    97   1
   102    42    98   1
   103    44    99   1
   104    45   100   1
   105    46   101   1
   106    47   102   1
   107    48   103   1
   108    49   104   1
   109    50   105   1
   110    52   106   1
   111    53   107   1
   112    53   108   1
   113    54   109   1
   114    54   110   1
   115    55   111   1
@<TRIPOS>SUBSTRUCTURE
     1  MOL      1

