@<TRIPOS>MOLECULE
1xd0_ligand_067
   111   115
SMALL
GAST_HUCK
****
This file was generated by PARSER (from files_GN.cpp)

@<TRIPOS>ATOM
      1 CR1        17.1692   10.1668   31.0097 C.3         1 MOL       0.1854
      2 CR2        17.1167    8.8167   31.7714 C.3         1 MOL       0.1339
      3 CR3        18.5479    8.3198   32.1185 C.3         1 MOL       0.1144
      4 CR4        19.3972    9.4337   32.7993 C.3         1 MOL       0.1184
      5 CR5        19.3267   10.7834   32.0004 C.3         1 MOL       0.1134
      6 CR6        20.2191   10.8633   30.7313 C.3         1 MOL       0.0730
      7 OR1        15.8567   10.6956   30.8264 O.3         1 MOL      -0.3649
      8 OR2        16.3403    8.9708   32.9643 O.3         1 MOL      -0.3841
      9 OR3        19.2040    7.8307   30.9539 O.3         1 MOL      -0.3864
     10 OR4        18.8505    9.5851   34.1360 O.3         1 MOL      -0.3401
     11 OR5        17.9526   11.1455   31.7259 O.3         1 MOL      -0.3407
     12 OR6        21.5886   11.0741   31.0591 O.3         1 MOL      -0.3924
     13 CV1        19.7151    9.9890   35.2277 C.3         1 MOL       0.1886
     14 CV2        19.0401    9.6890   36.5841 C.3         1 MOL       0.1370
     15 CV3        17.7908   10.5875   36.7671 C.3         1 MOL       0.1304
     16 CV4        18.1530   12.1022   36.6429 C.3         1 MOL       0.0334
     17 CV5        18.9775   12.3320   35.3297 C.3         1 MOL       0.1038
     18 CV6        19.6715   13.7116   35.2240 C.3         1 MOL      -0.0332
     19 OV2        18.7102    8.3051   36.6775 O.3         1 MOL      -0.3840
     20 OV3        17.2165   10.3103   38.0437 O.3         1 MOL      -0.3834
     21 NV4        16.8735   12.8709   36.6766 N.4         1 MOL       0.2370
     22 OV5        20.0643   11.3846   35.1857 O.3         1 MOL      -0.3401
     23 CQ1        11.4951   15.7126   37.3935 C.3         1 MOL       0.1883
     24 CQ2        11.5145   17.2035   37.8258 C.3         1 MOL       0.1341
     25 CQ3        11.4319   17.3336   39.3677 C.3         1 MOL       0.1144
     26 CQ4        10.1956   16.5699   39.9217 C.3         1 MOL       0.1184
     27 CQ5        10.1389   15.1162   39.3525 C.3         1 MOL       0.1134
     28 CQ6         8.7975   14.3969   39.6342 C.3         1 MOL       0.0730
     29 OQ2        12.6276   17.9229   37.2989 O.3         1 MOL      -0.3841
     30 OQ3        11.3813   18.7117   39.7384 O.3         1 MOL      -0.3864
     31 OQ4        10.0540   16.6569   41.3638 O.3         1 MOL      -0.3401
     32 OQ5        10.2911   15.1159   37.9165 O.3         1 MOL      -0.3405
     33 OQ6         8.4486   14.4376   41.0150 O.3         1 MOL      -0.3924
     34 CW1        11.1535   16.3077   42.2374 C.3         1 MOL       0.1884
     35 CW2        10.6294   15.8653   43.6319 C.3         1 MOL       0.1341
     36 CW3        10.0465   17.0700   44.4131 C.3         1 MOL       0.1141
     37 CW4        11.0784   18.2291   44.5061 C.3         1 MOL       0.1119
     38 CW5        11.6537   18.5734   43.0976 C.3         1 MOL       0.1130
     39 CW6        12.8809   19.5300   43.1277 C.3         1 MOL       0.0730
     40 OW2         9.6461   14.8435   43.4986 O.3         1 MOL      -0.3841
     41 OW3         9.6912   16.6050   45.7215 O.3         1 MOL      -0.3864
     42 OW4        10.4404   19.3634   45.0971 O.3         1 MOL      -0.3865
     43 OW5        12.1002   17.3867   42.3999 O.3         1 MOL      -0.3405
     44 OW6        13.2849   19.9527   44.4330 O.3         1 MOL      -0.3924
     45 CY1        16.8765   14.2956   37.1243 C.3         1 MOL       0.0073
     46 CY2        16.2823   14.4596   38.5583 C.3         1 MOL       0.1257
     47 OY2        16.9295   13.5585   39.4608 O.3         1 MOL      -0.3835
     48 CY3        14.7423   14.2440   38.5921 C.3         1 MOL       0.1127
     49 OY3        14.2718   14.4677   39.9190 O.3         1 MOL      -0.3864
     50 CY4        13.9932   15.1604   37.5809 C.3         1 MOL       0.0953
     51 OY4        12.5952   14.8607   37.7810 O.3         1 MOL      -0.3424
     52 CY5        14.5439   14.9256   36.1350 C.3         1 MOL       0.0162
     53 CY6        16.0867   15.1764   36.1125 C.3         1 MOL       0.0002
     54 CY7        13.8661   15.7608   35.0120 C.3         1 MOL       0.0497
     55 OY7        13.9509   17.1679   35.2351 O.3         1 MOL      -0.3946
     56 H1         17.5898   10.0113   30.0151 H           1 MOL       0.0935
     57 H2         16.6075    8.0734   31.1481 H           1 MOL       0.0671
     58 H3         18.4669    7.4718   32.7974 H           1 MOL       0.0648
     59 H4         20.4346    9.0864   32.8597 H           1 MOL       0.0651
     60 H5         19.7068   11.5700   32.6506 H           1 MOL       0.0647
     61 H6         19.8921   11.7051   30.1214 H           1 MOL       0.0584
     62 H7         20.1455    9.9626   30.1274 H           1 MOL       0.0584
     63 H8         15.6397   11.1511   31.6689 H           1 MOL       0.2126
     64 H9         16.2081    8.0599   33.3120 H           1 MOL       0.2101
     65 H10        18.6991    7.0375   30.6754 H           1 MOL       0.2100
     66 H11        21.9028   10.2289   31.4441 H           1 MOL       0.2095
     67 H12        20.6478    9.4168   35.1957 H           1 MOL       0.0938
     68 H13        19.7562    9.9047   37.3822 H           1 MOL       0.0672
     69 H14        17.0481   10.3193   36.0049 H           1 MOL       0.0679
     70 H15        18.7749   12.3660   37.5121 H           1 MOL       0.0903
     71 H16        18.3036   12.2333   34.4711 H           1 MOL       0.0652
     72 H17        20.3075   13.7447   34.3336 H           1 MOL       0.0257
     73 H18        20.3005   13.8908   36.0948 H           1 MOL       0.0257
     74 H19        18.9521   14.5223   35.1341 H           1 MOL       0.0257
     75 H20        17.8212    8.2024   36.2671 H           1 MOL       0.2101
     76 H21        16.2873   10.0551   37.8650 H           1 MOL       0.2102
     77 H22        16.2438   12.3740   37.3082 H           1 MOL       0.2022
     78 H23        16.4579   12.8195   35.7465 H           1 MOL       0.2022
     79 H24        11.3826   15.6852   36.3104 H           1 MOL       0.0938
     80 H25        10.6247   17.6770   37.4025 H           1 MOL       0.0671
     81 H26        12.3438   16.9121   39.7899 H           1 MOL       0.0648
     82 H27         9.3151   17.0957   39.5328 H           1 MOL       0.0651
     83 H28        10.9362   14.5179   39.7958 H           1 MOL       0.0647
     84 H29         8.8747   13.3451   39.3451 H           1 MOL       0.0584
     85 H30         7.9909   14.8566   39.0512 H           1 MOL       0.0584
     86 H31        12.9882   18.4421   38.0532 H           1 MOL       0.2101
     87 H32        11.0577   19.1862   38.9438 H           1 MOL       0.2100
     88 H33         7.6035   13.9365   41.0780 H           1 MOL       0.2095
     89 H34        11.6987   15.4549   41.8245 H           1 MOL       0.0938
     90 H35        11.4709   15.4462   44.1989 H           1 MOL       0.0671
     91 H36         9.1359   17.4128   43.9124 H           1 MOL       0.0648
     92 H37        11.8937   17.9122   45.1607 H           1 MOL       0.0647
     93 H38        10.8612   19.0564   42.5166 H           1 MOL       0.0647
     94 H39        12.6493   20.4396   42.5488 H           1 MOL       0.0584
     95 H40        13.7634   19.0572   42.6662 H           1 MOL       0.0584
     96 H41         9.3134   14.6894   44.4107 H           1 MOL       0.2101
     97 H42         8.8947   17.1073   45.9821 H           1 MOL       0.2100
     98 H43         9.9047   19.7693   44.3804 H           1 MOL       0.2100
     99 H44        12.8075   20.7941   44.6108 H           1 MOL       0.2095
    100 H45        17.9058   14.6729   37.1621 H           1 MOL       0.0877
    101 H46        16.5046   15.4760   38.9059 H           1 MOL       0.0677
    102 H47        16.7861   13.9374   40.3551 H           1 MOL       0.2102
    103 H48        14.5293   13.1973   38.3549 H           1 MOL       0.0647
    104 H49        14.4162   15.4208   40.1029 H           1 MOL       0.2100
    105 H50        14.2112   16.1826   37.8884 H           1 MOL       0.0627
    106 H51        14.3713   13.8736   35.8813 H           1 MOL       0.0351
    107 H52        16.4608   14.9735   35.1080 H           1 MOL       0.0325
    108 H53        16.3004   16.2309   36.3307 H           1 MOL       0.0325
    109 H54        12.8182   15.4781   34.9151 H           1 MOL       0.0561
    110 H55        14.3293   15.5520   34.0432 H           1 MOL       0.0561
    111 H56        14.8991   17.4029   35.1194 H           1 MOL       0.2094
@<TRIPOS>BOND
     1     2     1   1
     2     1     7   1
     3    11     1   1
     4     3     2   1
     5     2     8   1
     6     4     3   1
     7     3     9   1
     8     4     5   1
     9    10     4   1
    10     5     6   1
    11     5    11   1
    12     6    12   1
    13    13    10   1
    14    14    13   1
    15    22    13   1
    16    15    14   1
    17    14    19   1
    18    16    15   1
    19    15    20   1
    20    16    17   1
    21    21    16   1
    22    17    18   1
    23    17    22   1
    24    45    21   1
    25    23    24   1
    26    23    32   1
    27    51    23   1
    28    24    25   1
    29    24    29   1
    30    25    26   1
    31    25    30   1
    32    27    26   1
    33    26    31   1
    34    27    28   1
    35    32    27   1
    36    28    33   1
    37    31    34   1
    38    34    35   1
    39    34    43   1
    40    35    36   1
    41    35    40   1
    42    36    37   1
    43    36    41   1
    44    38    37   1
    45    37    42   1
    46    38    39   1
    47    43    38   1
    48    39    44   1
    49    46    45   1
    50    45    53   1
    51    46    47   1
    52    48    46   1
    53    48    49   1
    54    50    48   1
    55    50    51   1
    56    50    52   1
    57    52    53   1
    58    52    54   1
    59    54    55   1
    60     1    56   1
    61     2    57   1
    62     3    58   1
    63     4    59   1
    64     5    60   1
    65     6    61   1
    66     6    62   1
    67     7    63   1
    68     8    64   1
    69     9    65   1
    70    12    66   1
    71    13    67   1
    72    14    68   1
    73    15    69   1
    74    16    70   1
    75    17    71   1
    76    18    72   1
    77    18    73   1
    78    18    74   1
    79    19    75   1
    80    20    76   1
    81    21    77   1
    82    21    78   1
    83    23    79   1
    84    24    80   1
    85    25    81   1
    86    26    82   1
    87    27    83   1
    88    28    84   1
    89    28    85   1
    90    29    86   1
    91    30    87   1
    92    33    88   1
    93    34    89   1
    94    35    90   1
    95    36    91   1
    96    37    92   1
    97    38    93   1
    98    39    94   1
    99    39    95   1
   100    40    96   1
   101    41    97   1
   102    42    98   1
   103    44    99   1
   104    45   100   1
   105    46   101   1
   106    47   102   1
   107    48   103   1
   108    49   104   1
   109    50   105   1
   110    52   106   1
   111    53   107   1
   112    53   108   1
   113    54   109   1
   114    54   110   1
   115    55   111   1
@<TRIPOS>SUBSTRUCTURE
     1  MOL      1

