@<TRIPOS>MOLECULE
1xd0_ligand_056
   111   115
SMALL
GAST_HUCK
****
This file was generated by PARSER (from files_GN.cpp)

@<TRIPOS>ATOM
      1 CR1         0.4744   15.6263   36.8544 C.3         1 MOL       0.1854
      2 CR2         2.0037   15.8218   36.6906 C.3         1 MOL       0.1339
      3 CR3         2.4937   17.0036   37.5665 C.3         1 MOL       0.1144
      4 CR4         1.9408   17.0010   39.0288 C.3         1 MOL       0.1184
      5 CR5         0.4180   16.6281   39.1003 C.3         1 MOL       0.1134
      6 CR6        -0.5747   17.8169   38.8686 C.3         1 MOL       0.0730
      7 OR1         0.0305   14.4503   36.1799 O.3         1 MOL      -0.3649
      8 OR2         2.7180   14.6314   37.0104 O.3         1 MOL      -0.3841
      9 OR3         2.1111   18.2198   36.9143 O.3         1 MOL      -0.3864
     10 OR4         2.7695   16.2770   39.9676 O.3         1 MOL      -0.3401
     11 OR5         0.1064   15.5035   38.2441 O.3         1 MOL      -0.3407
     12 OR6        -1.4959   17.9579   39.9508 O.3         1 MOL      -0.3924
     13 CV1         2.8661   14.8370   40.0252 C.3         1 MOL       0.1886
     14 CV2         2.6058   14.3602   41.4753 C.3         1 MOL       0.1370
     15 CV3         3.7435   14.8380   42.4193 C.3         1 MOL       0.1304
     16 CV4         5.1444   14.3874   41.8809 C.3         1 MOL       0.0334
     17 CV5         5.3049   14.8166   40.3778 C.3         1 MOL       0.1038
     18 CV6         6.5507   14.2010   39.6956 C.3         1 MOL      -0.0332
     19 OV2         1.3394   14.8238   41.9499 O.3         1 MOL      -0.3840
     20 OV3         3.4762   14.3042   43.7144 O.3         1 MOL      -0.3834
     21 NV4         6.3188   14.6820   42.7685 N.4         1 MOL       0.2370
     22 OV5         4.1654   14.3813   39.5941 O.3         1 MOL      -0.3401
     23 CQ1        11.9386   17.0840   43.9226 C.3         1 MOL       0.1883
     24 CQ2        12.2664   18.5175   43.4413 C.3         1 MOL       0.1341
     25 CQ3        12.6114   18.4741   41.9303 C.3         1 MOL       0.1144
     26 CQ4        13.7441   17.4451   41.5934 C.3         1 MOL       0.1184
     27 CQ5        13.5548   16.0858   42.3662 C.3         1 MOL       0.1134
     28 CQ6        14.8546   15.2375   42.4889 C.3         1 MOL       0.0730
     29 OQ2        11.1746   19.3739   43.7681 O.3         1 MOL      -0.3841
     30 OQ3        12.9846   19.7759   41.4822 O.3         1 MOL      -0.3864
     31 OQ4        13.8153   17.4484   40.1403 O.3         1 MOL      -0.3401
     32 OQ5        13.1273   16.2951   43.7338 O.3         1 MOL      -0.3405
     33 OQ6        14.7863   14.3256   43.5787 O.3         1 MOL      -0.3924
     34 CW1        13.8995   16.2863   39.2853 C.3         1 MOL       0.1884
     35 CW2        14.0002   16.7209   37.7998 C.3         1 MOL       0.1341
     36 CW3        12.6776   17.3836   37.3331 C.3         1 MOL       0.1141
     37 CW4        11.4555   16.4729   37.6329 C.3         1 MOL       0.1119
     38 CW5        11.4797   15.9461   39.1001 C.3         1 MOL       0.1130
     39 CW6        10.3985   14.8643   39.3450 C.3         1 MOL       0.0730
     40 OW2        15.0935   17.6143   37.6111 O.3         1 MOL      -0.3841
     41 OW3        12.7337   17.6631   35.9335 O.3         1 MOL      -0.3864
     42 OW4        10.2454   17.1913   37.3680 O.3         1 MOL      -0.3865
     43 OW5        12.7737   15.3922   39.4355 O.3         1 MOL      -0.3405
     44 OW6        10.7724   13.9623   40.3850 O.3         1 MOL      -0.3924
     45 CY1         6.5036   15.9635   43.5293 C.3         1 MOL       0.0073
     46 CY2         7.1114   17.1657   42.7349 C.3         1 MOL       0.1257
     47 OY2         6.3502   17.4623   41.5649 O.3         1 MOL      -0.3835
     48 CY3         8.6035   16.9373   42.3634 C.3         1 MOL       0.1127
     49 OY3         9.0970   18.0571   41.6330 O.3         1 MOL      -0.3864
     50 CY4         9.4684   16.6911   43.6314 C.3         1 MOL       0.0953
     51 OY4        10.8337   16.4580   43.2148 O.3         1 MOL      -0.3424
     52 CY5         8.9116   15.4626   44.4180 C.3         1 MOL       0.0162
     53 CY6         7.4038   15.6772   44.7726 C.3         1 MOL       0.0002
     54 CY7         9.7420   15.1631   45.6955 C.3         1 MOL       0.0497
     55 OY7        11.1092   14.8808   45.3892 O.3         1 MOL      -0.3946
     56 H1         -0.0481   16.4675   36.3916 H           1 MOL       0.0935
     57 H2          2.2229   16.0417   35.6458 H           1 MOL       0.0671
     58 H3          3.5883   17.0004   37.5998 H           1 MOL       0.0648
     59 H4          2.0399   18.0238   39.4035 H           1 MOL       0.0651
     60 H5          0.2403   16.2590   40.1191 H           1 MOL       0.0647
     61 H6         -1.1768   17.6485   37.9694 H           1 MOL       0.0584
     62 H7         -0.0524   18.7664   38.7476 H           1 MOL       0.0584
     63 H8          0.1217   13.7277   36.8349 H           1 MOL       0.2126
     64 H9          2.4570   13.9737   36.3302 H           1 MOL       0.2101
     65 H10         2.6649   18.9197   37.3163 H           1 MOL       0.2100
     66 H11        -0.9471   18.1493   40.7399 H           1 MOL       0.2095
     67 H12         2.1165   14.3650   39.3921 H           1 MOL       0.0938
     68 H13         2.5792   13.2700   41.4849 H           1 MOL       0.0672
     69 H14         3.7131   15.9291   42.4909 H           1 MOL       0.0679
     70 H15         5.1027   13.2909   41.8739 H           1 MOL       0.0903
     71 H16         5.3893   15.9021   40.3063 H           1 MOL       0.0652
     72 H17         6.5901   14.5140   38.6487 H           1 MOL       0.0257
     73 H18         6.5223   13.1099   39.7322 H           1 MOL       0.0257
     74 H19         7.4623   14.5452   40.1847 H           1 MOL       0.0257
     75 H20         0.7138   14.0786   41.8107 H           1 MOL       0.2101
     76 H21         4.2298   14.5690   44.2841 H           1 MOL       0.2102
     77 H22         7.1671   14.5216   42.2300 H           1 MOL       0.2022
     78 H23         6.2862   13.9397   43.4777 H           1 MOL       0.2022
     79 H24        11.7424   17.1063   44.9979 H           1 MOL       0.0938
     80 H25        13.1391   18.8890   43.9913 H           1 MOL       0.0671
     81 H26        11.7122   18.2001   41.3838 H           1 MOL       0.0648
     82 H27        14.6782   17.8889   41.9430 H           1 MOL       0.0651
     83 H28        12.7975   15.4767   41.8671 H           1 MOL       0.0647
     84 H29        15.7102   15.8928   42.6445 H           1 MOL       0.0584
     85 H30        15.0331   14.6497   41.5944 H           1 MOL       0.0584
     86 H31        11.1071   20.0453   43.0557 H           1 MOL       0.2101
     87 H32        12.1894   20.3387   41.6096 H           1 MOL       0.2100
     88 H33        15.6451   14.4334   44.0448 H           1 MOL       0.2095
     89 H34        14.8146   15.7473   39.5006 H           1 MOL       0.0938
     90 H35        14.1889   15.8340   37.1843 H           1 MOL       0.0671
     91 H36        12.5589   18.3307   37.8635 H           1 MOL       0.0648
     92 H37        11.4885   15.6177   36.9527 H           1 MOL       0.0647
     93 H38        11.2638   16.7762   39.7750 H           1 MOL       0.0647
     94 H39        10.2281   14.2852   38.4373 H           1 MOL       0.0584
     95 H40         9.4613   15.3476   39.6348 H           1 MOL       0.0584
     96 H41        14.8164   18.4455   38.0518 H           1 MOL       0.2101
     97 H42        13.5485   18.1947   35.8101 H           1 MOL       0.2100
     98 H43        10.4783   18.1420   37.4424 H           1 MOL       0.2100
     99 H44        11.4569   13.3807   39.9832 H           1 MOL       0.2095
    100 H45         5.5367   16.2874   43.9216 H           1 MOL       0.0877
    101 H46         7.0584   18.0525   43.3761 H           1 MOL       0.0677
    102 H47         5.4596   17.7153   41.8908 H           1 MOL       0.2102
    103 H48         8.6808   16.0677   41.7020 H           1 MOL       0.0647
    104 H49         9.2106   18.7772   42.2891 H           1 MOL       0.2100
    105 H50         9.3885   17.5786   44.2682 H           1 MOL       0.0627
    106 H51         8.9770   14.5794   43.7732 H           1 MOL       0.0351
    107 H52         7.0173   14.7980   45.2995 H           1 MOL       0.0325
    108 H53         7.3161   16.5187   45.4648 H           1 MOL       0.0325
    109 H54         9.3316   14.2874   46.1971 H           1 MOL       0.0561
    110 H55         9.6941   16.0092   46.3874 H           1 MOL       0.0561
    111 H56        11.6239   15.2023   46.1627 H           1 MOL       0.2094
@<TRIPOS>BOND
     1     2     1   1
     2     1     7   1
     3    11     1   1
     4     3     2   1
     5     2     8   1
     6     4     3   1
     7     3     9   1
     8     4     5   1
     9    10     4   1
    10     5     6   1
    11     5    11   1
    12     6    12   1
    13    13    10   1
    14    14    13   1
    15    22    13   1
    16    15    14   1
    17    14    19   1
    18    16    15   1
    19    15    20   1
    20    16    17   1
    21    21    16   1
    22    17    18   1
    23    17    22   1
    24    45    21   1
    25    23    24   1
    26    23    32   1
    27    51    23   1
    28    24    25   1
    29    24    29   1
    30    25    26   1
    31    25    30   1
    32    27    26   1
    33    26    31   1
    34    27    28   1
    35    32    27   1
    36    28    33   1
    37    31    34   1
    38    34    35   1
    39    34    43   1
    40    35    36   1
    41    35    40   1
    42    36    37   1
    43    36    41   1
    44    38    37   1
    45    37    42   1
    46    38    39   1
    47    43    38   1
    48    39    44   1
    49    46    45   1
    50    45    53   1
    51    46    47   1
    52    48    46   1
    53    48    49   1
    54    50    48   1
    55    50    51   1
    56    50    52   1
    57    52    53   1
    58    52    54   1
    59    54    55   1
    60     1    56   1
    61     2    57   1
    62     3    58   1
    63     4    59   1
    64     5    60   1
    65     6    61   1
    66     6    62   1
    67     7    63   1
    68     8    64   1
    69     9    65   1
    70    12    66   1
    71    13    67   1
    72    14    68   1
    73    15    69   1
    74    16    70   1
    75    17    71   1
    76    18    72   1
    77    18    73   1
    78    18    74   1
    79    19    75   1
    80    20    76   1
    81    21    77   1
    82    21    78   1
    83    23    79   1
    84    24    80   1
    85    25    81   1
    86    26    82   1
    87    27    83   1
    88    28    84   1
    89    28    85   1
    90    29    86   1
    91    30    87   1
    92    33    88   1
    93    34    89   1
    94    35    90   1
    95    36    91   1
    96    37    92   1
    97    38    93   1
    98    39    94   1
    99    39    95   1
   100    40    96   1
   101    41    97   1
   102    42    98   1
   103    44    99   1
   104    45   100   1
   105    46   101   1
   106    47   102   1
   107    48   103   1
   108    49   104   1
   109    50   105   1
   110    52   106   1
   111    53   107   1
   112    53   108   1
   113    54   109   1
   114    54   110   1
   115    55   111   1
@<TRIPOS>SUBSTRUCTURE
     1  MOL      1

