@<TRIPOS>MOLECULE
1xd0_ligand_045
   111   115
SMALL
GAST_HUCK
****
This file was generated by PARSER (from files_GN.cpp)

@<TRIPOS>ATOM
      1 CR1         3.1959   15.7267   39.4423 C.3         1 MOL       0.1854
      2 CR2         3.3279   16.9840   40.3392 C.3         1 MOL       0.1339
      3 CR3         2.4913   16.8318   41.6447 C.3         1 MOL       0.1144
      4 CR4         2.7702   15.4805   42.3830 C.3         1 MOL       0.1184
      5 CR5         2.8069   14.2640   41.3764 C.3         1 MOL       0.1134
      6 CR6         1.4420   13.5606   41.1100 C.3         1 MOL       0.0730
      7 OR1         4.0666   15.8103   38.3204 O.3         1 MOL      -0.3649
      8 OR2         4.7080   17.1946   40.6528 O.3         1 MOL      -0.3841
      9 OR3         1.1027   17.0322   41.3723 O.3         1 MOL      -0.3864
     10 OR4         3.9365   15.7111   43.2218 O.3         1 MOL      -0.3401
     11 OR5         3.5456   14.5385   40.1647 O.3         1 MOL      -0.3407
     12 OR6         0.4286   14.3966   40.5674 O.3         1 MOL      -0.3924
     13 CV1         4.7330   14.6529   43.7948 C.3         1 MOL       0.1886
     14 CV2         5.2031   14.9151   45.2514 C.3         1 MOL       0.1370
     15 CV3         6.3531   15.9537   45.3474 C.3         1 MOL       0.1304
     16 CV4         7.4810   15.7179   44.2925 C.3         1 MOL       0.0334
     17 CV5         6.8147   15.5357   42.8890 C.3         1 MOL       0.1038
     18 CV6         7.7946   15.2289   41.7328 C.3         1 MOL      -0.0332
     19 OV2         4.0909   15.3119   46.0530 O.3         1 MOL      -0.3840
     20 OV3         6.9140   15.8766   46.6580 O.3         1 MOL      -0.3834
     21 NV4         8.4553   16.8541   44.2788 N.4         1 MOL       0.2370
     22 OV5         5.8661   14.4453   42.9276 O.3         1 MOL      -0.3401
     23 CQ1        13.4859   16.6966   41.1449 C.3         1 MOL       0.1883
     24 CQ2        14.3173   17.7678   40.3876 C.3         1 MOL       0.1341
     25 CQ3        15.4185   17.0925   39.5234 C.3         1 MOL       0.1144
     26 CQ4        14.8633   15.9664   38.6046 C.3         1 MOL       0.1184
     27 CQ5        13.8644   15.0205   39.3558 C.3         1 MOL       0.1134
     28 CQ6        14.5144   13.8009   40.0635 C.3         1 MOL       0.0730
     29 OQ2        13.4734   18.5530   39.5459 O.3         1 MOL      -0.3841
     30 OQ3        16.4741   16.5951   40.3463 O.3         1 MOL      -0.3864
     31 OQ4        14.2017   16.6143   37.4931 O.3         1 MOL      -0.3401
     32 OQ5        12.9441   15.7485   40.2039 O.3         1 MOL      -0.3405
     33 OQ6        15.5849   14.1138   40.9467 O.3         1 MOL      -0.3924
     34 CW1        14.0332   15.8865   36.2524 C.3         1 MOL       0.1884
     35 CW2        14.9333   16.4807   35.1343 C.3         1 MOL       0.1341
     36 CW3        14.4215   17.8774   34.6821 C.3         1 MOL       0.1141
     37 CW4        12.9052   17.8278   34.3444 C.3         1 MOL       0.1119
     38 CW5        12.1110   17.2185   35.5366 C.3         1 MOL       0.1130
     39 CW6        10.5921   17.0698   35.2663 C.3         1 MOL       0.0730
     40 OW2        16.2860   16.5759   35.5818 O.3         1 MOL      -0.3841
     41 OW3        15.1481   18.3218   33.5363 O.3         1 MOL      -0.3864
     42 OW4        12.4253   19.1380   34.0387 O.3         1 MOL      -0.3865
     43 OW5        12.6412   15.9147   35.8710 O.3         1 MOL      -0.3405
     44 OW6        10.3133   16.1965   34.1753 O.3         1 MOL      -0.3924
     45 CY1         9.6858   16.8454   45.1331 C.3         1 MOL       0.0073
     46 CY2        10.4658   18.1862   44.9583 C.3         1 MOL       0.1257
     47 OY2         9.6405   19.3087   45.2713 O.3         1 MOL      -0.3835
     48 CY3        11.0866   18.3087   43.5355 C.3         1 MOL       0.1127
     49 OY3        11.8057   19.5385   43.4273 O.3         1 MOL      -0.3864
     50 CY4        12.0428   17.1284   43.1843 C.3         1 MOL       0.0953
     51 OY4        12.3579   17.3256   41.7844 O.3         1 MOL      -0.3424
     52 CY5        11.3738   15.7334   43.4746 C.3         1 MOL       0.0162
     53 CY6        10.6880   15.6858   44.8785 C.3         1 MOL       0.0002
     54 CY7        12.3514   14.5305   43.3422 C.3         1 MOL       0.0497
     55 OY7        13.6700   14.8155   43.8070 O.3         1 MOL      -0.3946
     56 H1          2.1876   15.6469   39.0385 H           1 MOL       0.0935
     57 H2          2.9828   17.8587   39.7803 H           1 MOL       0.0671
     58 H3          2.7591   17.6595   42.3035 H           1 MOL       0.0648
     59 H4          1.9522   15.3161   43.0824 H           1 MOL       0.0651
     60 H5          3.4002   13.4690   41.8353 H           1 MOL       0.0647
     61 H6          1.0767   13.1498   42.0518 H           1 MOL       0.0584
     62 H7          1.6014   12.7300   40.4171 H           1 MOL       0.0584
     63 H8          4.9726   15.7931   38.6947 H           1 MOL       0.2126
     64 H9          4.7143   17.9693   41.2500 H           1 MOL       0.2101
     65 H10         0.8598   16.3421   40.7173 H           1 MOL       0.2100
     66 H11        -0.4146   13.9459   40.8102 H           1 MOL       0.2095
     67 H12         4.1485   13.7341   43.8477 H           1 MOL       0.0938
     68 H13         5.5695   13.9656   45.6578 H           1 MOL       0.0672
     69 H14         5.9346   16.9553   45.2032 H           1 MOL       0.0679
     70 H15         7.9836   14.7763   44.5220 H           1 MOL       0.0903
     71 H16         6.3077   16.4614   42.6204 H           1 MOL       0.0652
     72 H17         7.2402   15.0001   40.8164 H           1 MOL       0.0257
     73 H18         8.4168   14.3674   41.9800 H           1 MOL       0.0257
     74 H19         8.4434   16.0854   41.5313 H           1 MOL       0.0257
     75 H20         3.4736   14.5520   46.0364 H           1 MOL       0.2101
     76 H21         6.1763   16.0930   47.2657 H           1 MOL       0.2102
     77 H22         7.9305   17.6946   44.5427 H           1 MOL       0.2022
     78 H23         8.7734   16.9848   43.3180 H           1 MOL       0.2022
     79 H24        14.1276   16.1958   41.8768 H           1 MOL       0.0938
     80 H25        14.7887   18.4379   41.1108 H           1 MOL       0.0671
     81 H26        15.8770   17.8467   38.8809 H           1 MOL       0.0648
     82 H27        15.7181   15.3939   38.2237 H           1 MOL       0.0651
     83 H28        13.2153   14.5720   38.5979 H           1 MOL       0.0647
     84 H29        14.8853   13.0919   39.3188 H           1 MOL       0.0584
     85 H30        13.7469   13.2966   40.6460 H           1 MOL       0.0584
     86 H31        12.8592   19.0201   40.1507 H           1 MOL       0.2101
     87 H32        16.9243   17.3863   40.7134 H           1 MOL       0.2100
     88 H33        16.3632   14.2505   40.3599 H           1 MOL       0.2095
     89 H34        14.2992   14.8300   36.3633 H           1 MOL       0.0938
     90 H35        14.9115   15.8055   34.2723 H           1 MOL       0.0671
     91 H36        14.5842   18.6019   35.4868 H           1 MOL       0.0648
     92 H37        12.7638   17.2020   33.4592 H           1 MOL       0.0647
     93 H38        12.2110   17.8804   36.4034 H           1 MOL       0.0647
     94 H39        10.1466   18.0469   35.0654 H           1 MOL       0.0584
     95 H40        10.1099   16.6580   36.1546 H           1 MOL       0.0584
     96 H41        16.5611   15.6556   35.7817 H           1 MOL       0.2101
     97 H42        16.0767   18.4163   33.8366 H           1 MOL       0.2100
     98 H43        12.9198   19.4187   33.2395 H           1 MOL       0.2100
     99 H44        10.5992   16.6807   33.3726 H           1 MOL       0.2095
    100 H45         9.3646   16.7874   46.1733 H           1 MOL       0.0877
    101 H46        11.2820   18.2175   45.6867 H           1 MOL       0.0677
    102 H47         9.2188   19.5746   44.4249 H           1 MOL       0.2102
    103 H48        10.2819   18.3423   42.7948 H           1 MOL       0.0647
    104 H49        11.1550   20.1912   43.0959 H           1 MOL       0.2100
    105 H50        12.9464   17.2460   43.7928 H           1 MOL       0.0627
    106 H51        10.5928   15.5840   42.7238 H           1 MOL       0.0351
    107 H52        10.1830   14.7312   45.0169 H           1 MOL       0.0325
    108 H53        11.4603   15.7372   45.6502 H           1 MOL       0.0325
    109 H54        12.4297   14.2273   42.3055 H           1 MOL       0.0561
    110 H55        11.9811   13.6672   43.8955 H           1 MOL       0.0561
    111 H56        13.5865   15.0220   44.7756 H           1 MOL       0.2094
@<TRIPOS>BOND
     1     2     1   1
     2     1     7   1
     3    11     1   1
     4     3     2   1
     5     2     8   1
     6     4     3   1
     7     3     9   1
     8     4     5   1
     9    10     4   1
    10     5     6   1
    11     5    11   1
    12     6    12   1
    13    13    10   1
    14    14    13   1
    15    22    13   1
    16    15    14   1
    17    14    19   1
    18    16    15   1
    19    15    20   1
    20    16    17   1
    21    21    16   1
    22    17    18   1
    23    17    22   1
    24    45    21   1
    25    23    24   1
    26    23    32   1
    27    51    23   1
    28    24    25   1
    29    24    29   1
    30    25    26   1
    31    25    30   1
    32    27    26   1
    33    26    31   1
    34    27    28   1
    35    32    27   1
    36    28    33   1
    37    31    34   1
    38    34    35   1
    39    34    43   1
    40    35    36   1
    41    35    40   1
    42    36    37   1
    43    36    41   1
    44    38    37   1
    45    37    42   1
    46    38    39   1
    47    43    38   1
    48    39    44   1
    49    46    45   1
    50    45    53   1
    51    46    47   1
    52    48    46   1
    53    48    49   1
    54    50    48   1
    55    50    51   1
    56    50    52   1
    57    52    53   1
    58    52    54   1
    59    54    55   1
    60     1    56   1
    61     2    57   1
    62     3    58   1
    63     4    59   1
    64     5    60   1
    65     6    61   1
    66     6    62   1
    67     7    63   1
    68     8    64   1
    69     9    65   1
    70    12    66   1
    71    13    67   1
    72    14    68   1
    73    15    69   1
    74    16    70   1
    75    17    71   1
    76    18    72   1
    77    18    73   1
    78    18    74   1
    79    19    75   1
    80    20    76   1
    81    21    77   1
    82    21    78   1
    83    23    79   1
    84    24    80   1
    85    25    81   1
    86    26    82   1
    87    27    83   1
    88    28    84   1
    89    28    85   1
    90    29    86   1
    91    30    87   1
    92    33    88   1
    93    34    89   1
    94    35    90   1
    95    36    91   1
    96    37    92   1
    97    38    93   1
    98    39    94   1
    99    39    95   1
   100    40    96   1
   101    41    97   1
   102    42    98   1
   103    44    99   1
   104    45   100   1
   105    46   101   1
   106    47   102   1
   107    48   103   1
   108    49   104   1
   109    50   105   1
   110    52   106   1
   111    53   107   1
   112    53   108   1
   113    54   109   1
   114    54   110   1
   115    55   111   1
@<TRIPOS>SUBSTRUCTURE
     1  MOL      1

