@<TRIPOS>MOLECULE
1xd0_ligand_069
   111   115
SMALL
GAST_HUCK
****
This file was generated by PARSER (from files_GN.cpp)

@<TRIPOS>ATOM
      1 CR1         5.9037   15.1647   42.3571 C.3         1 MOL       0.1854
      2 CR2         6.4593   14.6463   43.7068 C.3         1 MOL       0.1339
      3 CR3         7.2824   15.7490   44.4319 C.3         1 MOL       0.1144
      4 CR4         8.3823   16.3255   43.4843 C.3         1 MOL       0.1184
      5 CR5         7.7260   16.7772   42.1376 C.3         1 MOL       0.1134
      6 CR6         8.7613   17.2500   41.0772 C.3         1 MOL       0.0730
      7 OR1         4.8682   16.1302   42.5575 O.3         1 MOL      -0.3649
      8 OR2         5.3894   14.1913   44.5391 O.3         1 MOL      -0.3841
      9 OR3         7.8434   15.1551   45.6033 O.3         1 MOL      -0.3864
     10 OR4         9.0786   17.4766   44.0169 O.3         1 MOL      -0.3401
     11 OR5         6.9661   15.7010   41.5409 O.3         1 MOL      -0.3407
     12 OR6         8.1132   17.7385   39.8987 O.3         1 MOL      -0.3924
     13 CV1        10.1439   17.3307   44.9862 C.3         1 MOL       0.1886
     14 CV2        11.0337   18.5986   44.9724 C.3         1 MOL       0.1370
     15 CV3        11.7802   18.7322   43.6213 C.3         1 MOL       0.1304
     16 CV4        12.5132   17.4098   43.2136 C.3         1 MOL       0.0334
     17 CV5        11.7083   16.1106   43.5569 C.3         1 MOL       0.1038
     18 CV6        12.6222   14.8631   43.6469 C.3         1 MOL      -0.0332
     19 OV2        10.2591   19.7623   45.2517 O.3         1 MOL      -0.3840
     20 OV3        12.7294   19.7995   43.7215 O.3         1 MOL      -0.3834
     21 NV4        12.7597   17.3909   41.7419 N.4         1 MOL       0.2370
     22 OV5        10.9926   16.1752   44.8076 O.3         1 MOL      -0.3401
     23 CQ1        14.8143   14.7509   37.2740 C.3         1 MOL       0.1883
     24 CQ2        15.5573   13.4239   36.9247 C.3         1 MOL       0.1341
     25 CQ3        15.1195   12.7897   35.5702 C.3         1 MOL       0.1144
     26 CQ4        14.8353   13.8206   34.4352 C.3         1 MOL       0.1184
     27 CQ5        13.9909   15.0291   34.9508 C.3         1 MOL       0.1134
     28 CQ6        12.4738   14.7538   35.1614 C.3         1 MOL       0.0730
     29 OQ2        16.9717   13.6046   36.9385 O.3         1 MOL      -0.3841
     30 OQ3        13.9481   11.9956   35.7850 O.3         1 MOL      -0.3864
     31 OQ4        16.0120   14.1556   33.6526 O.3         1 MOL      -0.3401
     32 OQ5        14.6019   15.5963   36.1269 O.3         1 MOL      -0.3405
     33 OQ6        11.8216   15.9033   35.6929 O.3         1 MOL      -0.3924
     34 CW1        16.8807   15.2942   33.8628 C.3         1 MOL       0.1884
     35 CW2        17.3135   15.8705   32.4891 C.3         1 MOL       0.1341
     36 CW3        18.3109   14.9219   31.7724 C.3         1 MOL       0.1141
     37 CW4        19.5046   14.5723   32.7085 C.3         1 MOL       0.1119
     38 CW5        18.9968   14.0491   34.0887 C.3         1 MOL       0.1130
     39 CW6        20.1580   13.8836   35.1033 C.3         1 MOL       0.0730
     40 OW2        16.1762   16.1022   31.6586 O.3         1 MOL      -0.3841
     41 OW3        18.7856   15.5528   30.5780 O.3         1 MOL      -0.3864
     42 OW4        20.3564   13.6155   32.0735 O.3         1 MOL      -0.3865
     43 OW5        18.0446   14.9757   34.6519 O.3         1 MOL      -0.3405
     44 OW6        19.6997   13.4133   36.3702 O.3         1 MOL      -0.3924
     45 CY1        13.8903   18.1776   41.1822 C.3         1 MOL       0.0073
     46 CY2        13.6347   18.4809   39.6760 C.3         1 MOL       0.1257
     47 OY2        12.3050   18.9829   39.5212 O.3         1 MOL      -0.3835
     48 CY3        13.8640   17.2456   38.7578 C.3         1 MOL       0.1127
     49 OY3        13.7458   17.6673   37.4006 O.3         1 MOL      -0.3864
     50 CY4        15.2603   16.5892   39.0094 C.3         1 MOL       0.0953
     51 OY4        15.6680   15.5057   38.1499 O.3         1 MOL      -0.3424
     52 CY5        15.4170   16.1788   40.5079 C.3         1 MOL       0.0162
     53 CY6        15.2438   17.4430   41.4029 C.3         1 MOL       0.0002
     54 CY7        16.7668   15.4651   40.8121 C.3         1 MOL       0.0497
     55 OY7        16.7908   14.9007   42.1230 O.3         1 MOL      -0.3946
     56 H1          5.4683   14.3210   41.8126 H           1 MOL       0.0935
     57 H2          7.1139   13.7911   43.5057 H           1 MOL       0.0671
     58 H3          6.6078   16.5529   44.7454 H           1 MOL       0.0648
     59 H4          9.0855   15.5158   43.2631 H           1 MOL       0.0651
     60 H5          7.0636   17.6255   42.3334 H           1 MOL       0.0647
     61 H6          9.4299   16.4271   40.7989 H           1 MOL       0.0584
     62 H7          9.3699   18.0670   41.4774 H           1 MOL       0.0584
     63 H8          4.6956   16.5013   41.6667 H           1 MOL       0.2126
     64 H9          5.0532   13.3775   44.1029 H           1 MOL       0.2101
     65 H10         7.9685   15.8902   46.2351 H           1 MOL       0.2100
     66 H11         7.8600   16.9379   39.3917 H           1 MOL       0.2095
     67 H12         9.7057   17.2658   45.9810 H           1 MOL       0.0938
     68 H13        11.7744   18.5094   45.7690 H           1 MOL       0.0672
     69 H14        11.0561   19.0041   42.8468 H           1 MOL       0.0679
     70 H15        13.4569   17.3767   43.7652 H           1 MOL       0.0903
     71 H16        10.9805   15.9296   42.7614 H           1 MOL       0.0652
     72 H17        12.0239   13.9756   43.8529 H           1 MOL       0.0257
     73 H18        13.3515   14.9796   44.4537 H           1 MOL       0.0257
     74 H19        13.1554   14.7006   42.7120 H           1 MOL       0.0257
     75 H20         9.8372   19.9973   44.3973 H           1 MOL       0.2101
     76 H21        12.2473   20.5864   44.0573 H           1 MOL       0.2102
     77 H22        11.8976   17.7117   41.2952 H           1 MOL       0.2022
     78 H23        12.8929   16.4214   41.4499 H           1 MOL       0.2022
     79 H24        13.8604   14.5136   37.7618 H           1 MOL       0.0938
     80 H25        15.3614   12.7061   37.7290 H           1 MOL       0.0671
     81 H26        15.8961   12.1013   35.2287 H           1 MOL       0.0648
     82 H27        14.2167   13.3042   33.6961 H           1 MOL       0.0651
     83 H28        14.0375   15.8046   34.1782 H           1 MOL       0.0647
     84 H29        12.3163   13.9291   35.8567 H           1 MOL       0.0584
     85 H30        12.0023   14.5020   34.2062 H           1 MOL       0.0584
     86 H31        17.1287   14.3662   36.3520 H           1 MOL       0.2101
     87 H32        14.1896   11.3315   36.4627 H           1 MOL       0.2100
     88 H33        11.8559   16.5749   34.9812 H           1 MOL       0.2095
     89 H34        16.3682   16.0945   34.3882 H           1 MOL       0.0938
     90 H35        17.8061   16.8327   32.6547 H           1 MOL       0.0671
     91 H36        17.7894   14.0034   31.4806 H           1 MOL       0.0648
     92 H37        20.0933   15.4843   32.8659 H           1 MOL       0.0647
     93 H38        18.5206   13.0745   33.9501 H           1 MOL       0.0647
     94 H39        20.6514   14.8472   35.2646 H           1 MOL       0.0584
     95 H40        20.8954   13.1760   34.7196 H           1 MOL       0.0584
     96 H41        15.6832   16.8342   32.0896 H           1 MOL       0.2101
     97 H42        19.2727   14.8552   30.0905 H           1 MOL       0.2100
     98 H43        19.8077   12.8094   31.9672 H           1 MOL       0.2100
     99 H44        19.3801   12.4996   36.2089 H           1 MOL       0.2095
    100 H45        13.9456   19.1422   41.6888 H           1 MOL       0.0877
    101 H46        14.3149   19.2769   39.3619 H           1 MOL       0.0677
    102 H47        12.1757   19.1666   38.5680 H           1 MOL       0.2102
    103 H48        13.0754   16.5131   38.9433 H           1 MOL       0.0647
    104 H49        14.4972   18.2775   37.2427 H           1 MOL       0.2100
    105 H50        16.0112   17.3558   38.8042 H           1 MOL       0.0627
    106 H51        14.6260   15.4581   40.7403 H           1 MOL       0.0351
    107 H52        15.3240   17.1525   42.4518 H           1 MOL       0.0325
    108 H53        16.0555   18.1446   41.1972 H           1 MOL       0.0325
    109 H54        17.5944   16.1708   40.7218 H           1 MOL       0.0561
    110 H55        16.9332   14.6484   40.1063 H           1 MOL       0.0561
    111 H56        16.2322   14.0972   42.0658 H           1 MOL       0.2094
@<TRIPOS>BOND
     1     2     1   1
     2     1     7   1
     3    11     1   1
     4     3     2   1
     5     2     8   1
     6     4     3   1
     7     3     9   1
     8     4     5   1
     9    10     4   1
    10     5     6   1
    11     5    11   1
    12     6    12   1
    13    13    10   1
    14    14    13   1
    15    22    13   1
    16    15    14   1
    17    14    19   1
    18    16    15   1
    19    15    20   1
    20    16    17   1
    21    21    16   1
    22    17    18   1
    23    17    22   1
    24    45    21   1
    25    23    24   1
    26    23    32   1
    27    51    23   1
    28    24    25   1
    29    24    29   1
    30    25    26   1
    31    25    30   1
    32    27    26   1
    33    26    31   1
    34    27    28   1
    35    32    27   1
    36    28    33   1
    37    31    34   1
    38    34    35   1
    39    34    43   1
    40    35    36   1
    41    35    40   1
    42    36    37   1
    43    36    41   1
    44    38    37   1
    45    37    42   1
    46    38    39   1
    47    43    38   1
    48    39    44   1
    49    46    45   1
    50    45    53   1
    51    46    47   1
    52    48    46   1
    53    48    49   1
    54    50    48   1
    55    50    51   1
    56    50    52   1
    57    52    53   1
    58    52    54   1
    59    54    55   1
    60     1    56   1
    61     2    57   1
    62     3    58   1
    63     4    59   1
    64     5    60   1
    65     6    61   1
    66     6    62   1
    67     7    63   1
    68     8    64   1
    69     9    65   1
    70    12    66   1
    71    13    67   1
    72    14    68   1
    73    15    69   1
    74    16    70   1
    75    17    71   1
    76    18    72   1
    77    18    73   1
    78    18    74   1
    79    19    75   1
    80    20    76   1
    81    21    77   1
    82    21    78   1
    83    23    79   1
    84    24    80   1
    85    25    81   1
    86    26    82   1
    87    27    83   1
    88    28    84   1
    89    28    85   1
    90    29    86   1
    91    30    87   1
    92    33    88   1
    93    34    89   1
    94    35    90   1
    95    36    91   1
    96    37    92   1
    97    38    93   1
    98    39    94   1
    99    39    95   1
   100    40    96   1
   101    41    97   1
   102    42    98   1
   103    44    99   1
   104    45   100   1
   105    46   101   1
   106    47   102   1
   107    48   103   1
   108    49   104   1
   109    50   105   1
   110    52   106   1
   111    53   107   1
   112    53   108   1
   113    54   109   1
   114    54   110   1
   115    55   111   1
@<TRIPOS>SUBSTRUCTURE
     1  MOL      1

