@<TRIPOS>MOLECULE
1xd0_ligand_041
   111   115
SMALL
GAST_HUCK
****
This file was generated by PARSER (from files_GN.cpp)

@<TRIPOS>ATOM
      1 CR1        15.8064   15.2996   38.1128 C.3         1 MOL       0.1854
      2 CR2        14.4616   14.5334   38.0943 C.3         1 MOL       0.1339
      3 CR3        13.3522   15.3832   38.7677 C.3         1 MOL       0.1144
      4 CR4        13.7668   15.8373   40.1975 C.3         1 MOL       0.1184
      5 CR5        15.1731   16.5334   40.1463 C.3         1 MOL       0.1134
      6 CR6        15.7779   16.8396   41.5462 C.3         1 MOL       0.0730
      7 OR1        15.7735   16.4244   37.2324 O.3         1 MOL      -0.3649
      8 OR2        14.0909   14.1998   36.7571 O.3         1 MOL      -0.3841
      9 OR3        12.1399   14.6301   38.8412 O.3         1 MOL      -0.3864
     10 OR4        12.6701   16.6608   40.6697 O.3         1 MOL      -0.3401
     11 OR5        16.1348   15.6910   39.4621 O.3         1 MOL      -0.3407
     12 OR6        15.7148   18.2299   41.8461 O.3         1 MOL      -0.3924
     13 CV1        12.4367   16.9652   42.0661 C.3         1 MOL       0.1886
     14 CV2        12.1835   15.7358   42.9848 C.3         1 MOL       0.1370
     15 CV3        11.7876   16.1917   44.4212 C.3         1 MOL       0.1304
     16 CV4        10.6722   17.2975   44.4939 C.3         1 MOL       0.0334
     17 CV5        10.8221   18.3540   43.3397 C.3         1 MOL       0.1038
     18 CV6        11.7113   19.5803   43.7050 C.3         1 MOL      -0.0332
     19 OV2        11.2025   14.8925   42.3819 O.3         1 MOL      -0.3840
     20 OV3        12.9927   16.6799   45.0207 O.3         1 MOL      -0.3834
     21 NV4         9.2557   16.8545   44.7630 N.4         1 MOL       0.2370
     22 OV5        11.2505   17.7907   42.0760 O.3         1 MOL      -0.3401
     23 CQ1         3.3852   15.3198   42.6194 C.3         1 MOL       0.1883
     24 CQ2         3.8260   14.1589   41.6589 C.3         1 MOL       0.1341
     25 CQ3         2.7659   13.8890   40.5525 C.3         1 MOL       0.1144
     26 CQ4         2.3163   15.2116   39.8563 C.3         1 MOL       0.1184
     27 CQ5         1.8810   16.2981   40.8963 C.3         1 MOL       0.1134
     28 CQ6         0.4057   16.1922   41.4239 C.3         1 MOL       0.0730
     29 OQ2         5.0767   14.3862   40.9990 O.3         1 MOL      -0.3841
     30 OQ3         1.6545   13.1503   41.0675 O.3         1 MOL      -0.3864
     31 OQ4         3.4107   15.8126   39.1127 O.3         1 MOL      -0.3401
     32 OQ5         2.8997   16.4846   41.9166 O.3         1 MOL      -0.3405
     33 OQ6         0.1910   15.2972   42.5143 O.3         1 MOL      -0.3924
     34 CW1         3.8423   15.2065   37.8780 C.3         1 MOL       0.1884
     35 CW2         5.3121   15.6302   37.5917 C.3         1 MOL       0.1341
     36 CW3         5.3872   17.1407   37.2412 C.3         1 MOL       0.1141
     37 CW4         4.3863   17.4980   36.1069 C.3         1 MOL       0.1119
     38 CW5         2.9584   16.9725   36.4406 C.3         1 MOL       0.1130
     39 CW6         1.9600   17.1649   35.2719 C.3         1 MOL       0.0730
     40 OW2         6.1496   15.3540   38.7152 O.3         1 MOL      -0.3841
     41 OW3         6.7217   17.4747   36.8590 O.3         1 MOL      -0.3864
     42 OW4         4.3677   18.9125   35.9078 O.3         1 MOL      -0.3865
     43 OW5         3.0042   15.5604   36.7540 O.3         1 MOL      -0.3405
     44 OW6         0.6649   16.6849   35.6245 O.3         1 MOL      -0.3924
     45 CY1         8.6563   15.6104   44.1817 C.3         1 MOL       0.0073
     46 CY2         8.0060   15.8120   42.7717 C.3         1 MOL       0.1257
     47 OY2         8.8418   16.5870   41.9165 O.3         1 MOL      -0.3835
     48 CY3         6.5765   16.4271   42.8525 C.3         1 MOL       0.1127
     49 OY3         6.0466   16.6312   41.5467 O.3         1 MOL      -0.3864
     50 CY4         5.6843   15.4864   43.7203 C.3         1 MOL       0.0953
     51 OY4         4.2776   15.7891   43.6634 O.3         1 MOL      -0.3424
     52 CY5         6.2191   15.5347   45.1904 C.3         1 MOL       0.0162
     53 CY6         7.6717   14.9548   45.2052 C.3         1 MOL       0.0002
     54 CY7         5.2951   14.7796   46.2002 C.3         1 MOL       0.0497
     55 OY7         4.4457   15.6909   46.9089 O.3         1 MOL      -0.3946
     56 H1         16.5941   14.6296   37.7600 H           1 MOL       0.0935
     57 H2         14.5888   13.6033   38.6554 H           1 MOL       0.0671
     58 H3         13.1566   16.2678   38.1531 H           1 MOL       0.0648
     59 H4         13.8594   14.9283   40.7966 H           1 MOL       0.0651
     60 H5         15.0912   17.4751   39.5928 H           1 MOL       0.0647
     61 H6         16.8350   16.5514   41.5904 H           1 MOL       0.0584
     62 H7         15.2534   16.2811   42.3257 H           1 MOL       0.0584
     63 H8         16.6214   16.3898   36.7433 H           1 MOL       0.2126
     64 H9         14.7069   13.4861   36.4884 H           1 MOL       0.2101
     65 H10        11.9519   14.3479   37.9211 H           1 MOL       0.2100
     66 H11        16.6346   18.5455   41.7396 H           1 MOL       0.2095
     67 H12        13.2847   17.5377   42.4406 H           1 MOL       0.0938
     68 H13        13.0992   15.1444   43.0716 H           1 MOL       0.0672
     69 H14        11.4806   15.3258   45.0127 H           1 MOL       0.0679
     70 H15        10.8725   17.8516   45.4192 H           1 MOL       0.0903
     71 H16         9.8349   18.7759   43.1409 H           1 MOL       0.0652
     72 H17        11.8211   20.2380   42.8389 H           1 MOL       0.0257
     73 H18        12.7057   19.2678   44.0305 H           1 MOL       0.0257
     74 H19        11.2472   20.1534   44.5115 H           1 MOL       0.0257
     75 H20        11.7014   14.1395   42.0064 H           1 MOL       0.2101
     76 H21        12.8069   16.7021   45.9771 H           1 MOL       0.2102
     77 H22         8.6271   17.6340   44.5542 H           1 MOL       0.2022
     78 H23         9.1986   16.7360   45.7789 H           1 MOL       0.2022
     79 H24         2.5492   14.9231   43.1935 H           1 MOL       0.0938
     80 H25         3.9512   13.2533   42.2579 H           1 MOL       0.0671
     81 H26         3.2065   13.2323   39.7976 H           1 MOL       0.0648
     82 H27         1.4716   14.9988   39.1881 H           1 MOL       0.0651
     83 H28         1.8977   17.2473   40.3423 H           1 MOL       0.0647
     84 H29        -0.2810   15.9291   40.6115 H           1 MOL       0.0584
     85 H30         0.0967   17.1726   41.7973 H           1 MOL       0.0584
     86 H31         4.9965   15.2666   40.5830 H           1 MOL       0.2101
     87 H32         1.2489   13.7300   41.7426 H           1 MOL       0.2100
     88 H33        -0.4821   14.6591   42.2016 H           1 MOL       0.2095
     89 H34         3.8254   14.1186   37.9840 H           1 MOL       0.0938
     90 H35         5.6870   15.0493   36.7419 H           1 MOL       0.0671
     91 H36         5.1424   17.7207   38.1342 H           1 MOL       0.0648
     92 H37         4.7285   17.0358   35.1767 H           1 MOL       0.0647
     93 H38         2.5657   17.5303   37.2986 H           1 MOL       0.0647
     94 H39         2.3043   16.6305   34.3834 H           1 MOL       0.0584
     95 H40         1.8674   18.2263   35.0275 H           1 MOL       0.0584
     96 H41         6.2017   14.3765   38.7719 H           1 MOL       0.2101
     97 H42         6.7237   18.4453   36.7334 H           1 MOL       0.2100
     98 H43         4.0676   19.2922   36.7603 H           1 MOL       0.2100
     99 H44         0.7531   15.7104   35.6722 H           1 MOL       0.2095
    100 H45         9.4421   14.8702   44.0762 H           1 MOL       0.0877
    101 H46         7.9309   14.8290   42.2972 H           1 MOL       0.0677
    102 H47         8.4954   16.4475   41.0102 H           1 MOL       0.2102
    103 H48         6.6284   17.4141   43.3232 H           1 MOL       0.0647
    104 H49         6.4462   17.4762   41.2411 H           1 MOL       0.2100
    105 H50         5.8085   14.4471   43.4116 H           1 MOL       0.0627
    106 H51         6.2703   16.5778   45.5236 H           1 MOL       0.0351
    107 H52         8.0825   15.0381   46.2166 H           1 MOL       0.0325
    108 H53         7.6144   13.8848   44.9811 H           1 MOL       0.0325
    109 H54         5.8960   14.2382   46.9433 H           1 MOL       0.0561
    110 H55         4.6686   14.0487   45.6764 H           1 MOL       0.0561
    111 H56         4.9070   15.8527   47.7604 H           1 MOL       0.2094
@<TRIPOS>BOND
     1     2     1   1
     2     1     7   1
     3    11     1   1
     4     3     2   1
     5     2     8   1
     6     4     3   1
     7     3     9   1
     8     4     5   1
     9    10     4   1
    10     5     6   1
    11     5    11   1
    12     6    12   1
    13    13    10   1
    14    14    13   1
    15    22    13   1
    16    15    14   1
    17    14    19   1
    18    16    15   1
    19    15    20   1
    20    16    17   1
    21    21    16   1
    22    17    18   1
    23    17    22   1
    24    45    21   1
    25    23    24   1
    26    23    32   1
    27    51    23   1
    28    24    25   1
    29    24    29   1
    30    25    26   1
    31    25    30   1
    32    27    26   1
    33    26    31   1
    34    27    28   1
    35    32    27   1
    36    28    33   1
    37    31    34   1
    38    34    35   1
    39    34    43   1
    40    35    36   1
    41    35    40   1
    42    36    37   1
    43    36    41   1
    44    38    37   1
    45    37    42   1
    46    38    39   1
    47    43    38   1
    48    39    44   1
    49    46    45   1
    50    45    53   1
    51    46    47   1
    52    48    46   1
    53    48    49   1
    54    50    48   1
    55    50    51   1
    56    50    52   1
    57    52    53   1
    58    52    54   1
    59    54    55   1
    60     1    56   1
    61     2    57   1
    62     3    58   1
    63     4    59   1
    64     5    60   1
    65     6    61   1
    66     6    62   1
    67     7    63   1
    68     8    64   1
    69     9    65   1
    70    12    66   1
    71    13    67   1
    72    14    68   1
    73    15    69   1
    74    16    70   1
    75    17    71   1
    76    18    72   1
    77    18    73   1
    78    18    74   1
    79    19    75   1
    80    20    76   1
    81    21    77   1
    82    21    78   1
    83    23    79   1
    84    24    80   1
    85    25    81   1
    86    26    82   1
    87    27    83   1
    88    28    84   1
    89    28    85   1
    90    29    86   1
    91    30    87   1
    92    33    88   1
    93    34    89   1
    94    35    90   1
    95    36    91   1
    96    37    92   1
    97    38    93   1
    98    39    94   1
    99    39    95   1
   100    40    96   1
   101    41    97   1
   102    42    98   1
   103    44    99   1
   104    45   100   1
   105    46   101   1
   106    47   102   1
   107    48   103   1
   108    49   104   1
   109    50   105   1
   110    52   106   1
   111    53   107   1
   112    53   108   1
   113    54   109   1
   114    54   110   1
   115    55   111   1
@<TRIPOS>SUBSTRUCTURE
     1  MOL      1

