@<TRIPOS>MOLECULE
1xd0_ligand_057
   111   115
SMALL
GAST_HUCK
****
This file was generated by PARSER (from files_GN.cpp)

@<TRIPOS>ATOM
      1 CR1        -1.3527   18.0033   37.9067 C.3         1 MOL       0.1854
      2 CR2        -1.4169   16.4497   37.9925 C.3         1 MOL       0.1339
      3 CR3        -0.0478   15.8315   37.5765 C.3         1 MOL       0.1144
      4 CR4         1.1397   16.4718   38.3594 C.3         1 MOL       0.1184
      5 CR5         1.0699   18.0394   38.3731 C.3         1 MOL       0.1134
      6 CR6         1.7172   18.7824   37.1681 C.3         1 MOL       0.0730
      7 OR1        -2.5635   18.5855   38.3843 O.3         1 MOL      -0.3649
      8 OR2        -1.7356   16.0267   39.3223 O.3         1 MOL      -0.3841
      9 OR3         0.1519   15.9501   36.1625 O.3         1 MOL      -0.3864
     10 OR4         1.1486   16.0656   39.7481 O.3         1 MOL      -0.3401
     11 OR5        -0.2578   18.5317   38.6852 O.3         1 MOL      -0.3407
     12 OR6         0.9747   18.7445   35.9527 O.3         1 MOL      -0.3924
     13 CV1         1.3644   14.6810   40.1017 C.3         1 MOL       0.1886
     14 CV2         1.4277   14.5451   41.6484 C.3         1 MOL       0.1370
     15 CV3         2.7416   15.1606   42.1930 C.3         1 MOL       0.1304
     16 CV4         3.9827   14.5518   41.4681 C.3         1 MOL       0.0334
     17 CV5         3.8073   14.7073   39.9252 C.3         1 MOL       0.1038
     18 CV6         4.9174   14.0043   39.1001 C.3         1 MOL      -0.0332
     19 OV2         0.3086   15.1871   42.2615 O.3         1 MOL      -0.3840
     20 OV3         2.8193   14.9380   43.5976 O.3         1 MOL      -0.3834
     21 NV4         5.3068   14.9542   42.0339 N.4         1 MOL       0.2370
     22 OV5         2.5556   14.1184   39.5047 O.3         1 MOL      -0.3401
     23 CQ1        11.0439   17.0304   41.9366 C.3         1 MOL       0.1883
     24 CQ2        11.4860   18.0275   40.8233 C.3         1 MOL       0.1341
     25 CQ3        12.8945   18.6124   41.1456 C.3         1 MOL       0.1144
     26 CQ4        13.9122   17.4851   41.5150 C.3         1 MOL       0.1184
     27 CQ5        13.3431   16.4726   42.5632 C.3         1 MOL       0.1134
     28 CQ6        13.3749   16.9547   44.0454 C.3         1 MOL       0.0730
     29 OQ2        11.4874   17.3651   39.5519 O.3         1 MOL      -0.3841
     30 OQ3        12.7982   19.5953   42.1824 O.3         1 MOL      -0.3864
     31 OQ4        14.1371   16.7295   40.3074 O.3         1 MOL      -0.3401
     32 OQ5        12.0399   16.0134   42.1414 O.3         1 MOL      -0.3405
     33 OQ6        12.1432   16.6839   44.7233 O.3         1 MOL      -0.3924
     34 CW1        15.3211   16.9010   39.5042 C.3         1 MOL       0.1884
     35 CW2        14.9176   17.3367   38.0733 C.3         1 MOL       0.1341
     36 CW3        14.0825   16.2278   37.3779 C.3         1 MOL       0.1141
     37 CW4        14.8140   14.8573   37.4375 C.3         1 MOL       0.1119
     38 CW5        15.3176   14.5377   38.8829 C.3         1 MOL       0.1130
     39 CW6        16.2385   13.2925   38.9289 C.3         1 MOL       0.0730
     40 OW2        14.2012   18.5710   38.1330 O.3         1 MOL      -0.3841
     41 OW3        13.8369   16.6060   36.0237 O.3         1 MOL      -0.3864
     42 OW4        13.9242   13.8422   36.9684 O.3         1 MOL      -0.3865
     43 OW5        16.0501   15.6573   39.4408 O.3         1 MOL      -0.3405
     44 OW6        15.4520   12.1102   39.0349 O.3         1 MOL      -0.3924
     45 CY1         5.6232   16.3412   42.5051 C.3         1 MOL       0.0073
     46 CY2         6.1872   17.2924   41.4050 C.3         1 MOL       0.1257
     47 OY2         5.3113   17.4256   40.2938 O.3         1 MOL      -0.3835
     48 CY3         7.5905   16.8542   40.9163 C.3         1 MOL       0.1127
     49 OY3         8.0525   17.7688   39.9223 O.3         1 MOL      -0.3864
     50 CY4         8.5913   16.7769   42.1034 C.3         1 MOL       0.0953
     51 OY4         9.8526   16.2947   41.5857 O.3         1 MOL      -0.3424
     52 CY5         8.0634   15.8121   43.2196 C.3         1 MOL       0.0162
     53 CY6         6.6427   16.2577   43.6848 C.3         1 MOL       0.0002
     54 CY7         9.0503   15.6520   44.4214 C.3         1 MOL       0.0497
     55 OY7         9.4720   16.8997   44.9861 O.3         1 MOL      -0.3946
     56 H1         -1.2558   18.3068   36.8610 H           1 MOL       0.0935
     57 H2         -2.1980   16.0772   37.3154 H           1 MOL       0.0671
     58 H3         -0.0780   14.7521   37.7764 H           1 MOL       0.0648
     59 H4          2.0750   16.1753   37.8803 H           1 MOL       0.0651
     60 H5          1.6742   18.3661   39.2271 H           1 MOL       0.0647
     61 H6          2.7115   18.3662   36.9741 H           1 MOL       0.0584
     62 H7          1.8417   19.8350   37.4425 H           1 MOL       0.0584
     63 H8         -2.3792   18.8552   39.3087 H           1 MOL       0.2126
     64 H9         -2.7122   15.9775   39.3408 H           1 MOL       0.2101
     65 H10        -0.5587   15.4006   35.7594 H           1 MOL       0.2100
     66 H11         0.9774   17.7989   35.6898 H           1 MOL       0.2095
     67 H12         0.5132   14.0911   39.7588 H           1 MOL       0.0938
     68 H13         1.3970   13.4832   41.9167 H           1 MOL       0.0672
     69 H14         2.6981   16.2384   42.0219 H           1 MOL       0.0679
     70 H15         3.9394   13.4733   41.6560 H           1 MOL       0.0903
     71 H16         3.8084   15.7646   39.6569 H           1 MOL       0.0652
     72 H17         4.7226   14.1264   38.0299 H           1 MOL       0.0257
     73 H18         4.9429   12.9345   39.3285 H           1 MOL       0.0257
     74 H19         5.8982   14.4315   39.3143 H           1 MOL       0.0257
     75 H20        -0.3701   14.4901   42.3520 H           1 MOL       0.2101
     76 H21         3.3276   15.6926   43.9602 H           1 MOL       0.2102
     77 H22         6.0261   14.6720   41.3645 H           1 MOL       0.2022
     78 H23         5.4261   14.3422   42.8476 H           1 MOL       0.2022
     79 H24        10.8927   17.5688   42.8787 H           1 MOL       0.0938
     80 H25        10.7612   18.8480   40.7667 H           1 MOL       0.0671
     81 H26        13.2611   19.1453   40.2616 H           1 MOL       0.0648
     82 H27        14.8321   17.9274   41.9076 H           1 MOL       0.0651
     83 H28        13.9754   15.5811   42.5255 H           1 MOL       0.0647
     84 H29        13.5624   18.0302   44.1087 H           1 MOL       0.0584
     85 H30        14.1829   16.4478   44.5807 H           1 MOL       0.0584
     86 H31        11.3156   18.0693   38.8859 H           1 MOL       0.2101
     87 H32        12.1061   20.2293   41.8870 H           1 MOL       0.2100
     88 H33        12.3875   16.7117   45.6820 H           1 MOL       0.2095
     89 H34        15.9880   17.6619   39.9188 H           1 MOL       0.0938
     90 H35        15.8286   17.5046   37.4952 H           1 MOL       0.0671
     91 H36        13.1139   16.1444   37.8789 H           1 MOL       0.0648
     92 H37        15.6713   14.9002   36.7599 H           1 MOL       0.0647
     93 H38        14.4526   14.3283   39.5234 H           1 MOL       0.0647
     94 H39        16.8894   13.3431   39.8026 H           1 MOL       0.0584
     95 H40        16.8703   13.2409   38.0394 H           1 MOL       0.0584
     96 H41        14.1849   18.9101   37.2090 H           1 MOL       0.2101
     97 H42        13.1901   15.9541   35.6816 H           1 MOL       0.2100
     98 H43        14.4658   13.0284   36.8958 H           1 MOL       0.2100
     99 H44        15.9262   11.4274   38.5044 H           1 MOL       0.2095
    100 H45         4.7218   16.8027   42.9075 H           1 MOL       0.0877
    101 H46         6.2791   18.2887   41.8460 H           1 MOL       0.0677
    102 H47         4.4372   17.6506   40.6755 H           1 MOL       0.2102
    103 H48         7.5225   15.8741   40.4387 H           1 MOL       0.0647
    104 H49         8.6027   18.4217   40.3989 H           1 MOL       0.2100
    105 H50         8.6790   17.7860   42.5309 H           1 MOL       0.0627
    106 H51         7.9695   14.8098   42.7805 H           1 MOL       0.0351
    107 H52         6.2692   15.5585   44.4388 H           1 MOL       0.0325
    108 H53         6.7218   17.2370   44.1637 H           1 MOL       0.0325
    109 H54         9.9497   15.1197   44.0841 H           1 MOL       0.0561
    110 H55         8.5876   15.0444   45.2158 H           1 MOL       0.0561
    111 H56         8.7049   17.2181   45.5146 H           1 MOL       0.2094
@<TRIPOS>BOND
     1     2     1   1
     2     1     7   1
     3    11     1   1
     4     3     2   1
     5     2     8   1
     6     4     3   1
     7     3     9   1
     8     4     5   1
     9    10     4   1
    10     5     6   1
    11     5    11   1
    12     6    12   1
    13    13    10   1
    14    14    13   1
    15    22    13   1
    16    15    14   1
    17    14    19   1
    18    16    15   1
    19    15    20   1
    20    16    17   1
    21    21    16   1
    22    17    18   1
    23    17    22   1
    24    45    21   1
    25    23    24   1
    26    23    32   1
    27    51    23   1
    28    24    25   1
    29    24    29   1
    30    25    26   1
    31    25    30   1
    32    27    26   1
    33    26    31   1
    34    27    28   1
    35    32    27   1
    36    28    33   1
    37    31    34   1
    38    34    35   1
    39    34    43   1
    40    35    36   1
    41    35    40   1
    42    36    37   1
    43    36    41   1
    44    38    37   1
    45    37    42   1
    46    38    39   1
    47    43    38   1
    48    39    44   1
    49    46    45   1
    50    45    53   1
    51    46    47   1
    52    48    46   1
    53    48    49   1
    54    50    48   1
    55    50    51   1
    56    50    52   1
    57    52    53   1
    58    52    54   1
    59    54    55   1
    60     1    56   1
    61     2    57   1
    62     3    58   1
    63     4    59   1
    64     5    60   1
    65     6    61   1
    66     6    62   1
    67     7    63   1
    68     8    64   1
    69     9    65   1
    70    12    66   1
    71    13    67   1
    72    14    68   1
    73    15    69   1
    74    16    70   1
    75    17    71   1
    76    18    72   1
    77    18    73   1
    78    18    74   1
    79    19    75   1
    80    20    76   1
    81    21    77   1
    82    21    78   1
    83    23    79   1
    84    24    80   1
    85    25    81   1
    86    26    82   1
    87    27    83   1
    88    28    84   1
    89    28    85   1
    90    29    86   1
    91    30    87   1
    92    33    88   1
    93    34    89   1
    94    35    90   1
    95    36    91   1
    96    37    92   1
    97    38    93   1
    98    39    94   1
    99    39    95   1
   100    40    96   1
   101    41    97   1
   102    42    98   1
   103    44    99   1
   104    45   100   1
   105    46   101   1
   106    47   102   1
   107    48   103   1
   108    49   104   1
   109    50   105   1
   110    52   106   1
   111    53   107   1
   112    53   108   1
   113    54   109   1
   114    54   110   1
   115    55   111   1
@<TRIPOS>SUBSTRUCTURE
     1  MOL      1

