@<TRIPOS>MOLECULE
1xd0_ligand_053
   111   115
SMALL
GAST_HUCK
****
This file was generated by PARSER (from files_GN.cpp)

@<TRIPOS>ATOM
      1 CR1         5.4769   15.2903   42.2771 C.3         1 MOL       0.1854
      2 CR2         6.0506   14.7140   43.5976 C.3         1 MOL       0.1339
      3 CR3         6.9099   15.7725   44.3464 C.3         1 MOL       0.1144
      4 CR4         8.0064   16.3427   43.3958 C.3         1 MOL       0.1184
      5 CR5         7.3210   16.8857   42.0984 C.3         1 MOL       0.1134
      6 CR6         8.3065   17.4210   41.0256 C.3         1 MOL       0.0730
      7 OR1         4.4628   16.2677   42.5001 O.3         1 MOL      -0.3649
      8 OR2         4.9868   14.2305   44.4182 O.3         1 MOL      -0.3841
      9 OR3         7.4882   15.1523   45.4943 O.3         1 MOL      -0.3864
     10 OR4         8.7906   17.4218   43.9592 O.3         1 MOL      -0.3401
     11 OR5         6.5252   15.8552   41.4667 O.3         1 MOL      -0.3407
     12 OR6         9.0255   16.3775   40.3751 O.3         1 MOL      -0.3924
     13 CV1         9.9821   17.1705   44.7460 C.3         1 MOL       0.1886
     14 CV2        10.8760   18.4413   44.7737 C.3         1 MOL       0.1370
     15 CV3        11.4735   18.7229   43.3649 C.3         1 MOL       0.1304
     16 CV4        12.2319   17.4787   42.7968 C.3         1 MOL       0.0334
     17 CV5        11.3381   16.2017   42.9553 C.3         1 MOL       0.1038
     18 CV6        12.0730   14.8711   42.6516 C.3         1 MOL      -0.0332
     19 OV2        10.1407   19.5630   45.2634 O.3         1 MOL      -0.3840
     20 OV3        12.3472   19.8488   43.4359 O.3         1 MOL      -0.3834
     21 NV4        12.5339   17.6600   41.3461 N.4         1 MOL       0.2370
     22 OV5        10.7897   16.0665   44.2885 O.3         1 MOL      -0.3401
     23 CQ1        15.2264   14.4444   37.2933 C.3         1 MOL       0.1883
     24 CQ2        15.2948   12.8996   37.1829 C.3         1 MOL       0.1341
     25 CQ3        15.6134   12.4632   35.7260 C.3         1 MOL       0.1144
     26 CQ4        16.8823   13.1831   35.1751 C.3         1 MOL       0.1184
     27 CQ5        16.8295   14.7340   35.4283 C.3         1 MOL       0.1134
     28 CQ6        16.0960   15.5759   34.3434 C.3         1 MOL       0.0730
     29 OQ2        16.2617   12.3751   38.0977 O.3         1 MOL      -0.3841
     30 OQ3        14.4775   12.6906   34.8945 O.3         1 MOL      -0.3864
     31 OQ4        17.9954   12.5065   35.8121 O.3         1 MOL      -0.3401
     32 OQ5        16.4303   15.0561   36.7802 O.3         1 MOL      -0.3405
     33 OQ6        14.6849   15.4143   34.2787 O.3         1 MOL      -0.3924
     34 CW1        19.3484   12.7810   35.4040 C.3         1 MOL       0.1884
     35 CW2        20.2391   11.5405   35.6835 C.3         1 MOL       0.1341
     36 CW3        21.7296   11.8725   35.3915 C.3         1 MOL       0.1141
     37 CW4        22.1886   13.1996   36.0670 C.3         1 MOL       0.1119
     38 CW5        21.1614   14.3645   35.8845 C.3         1 MOL       0.1130
     39 CW6        21.2187   15.1844   34.5505 C.3         1 MOL       0.0730
     40 OW2        20.0954   11.1098   37.0389 O.3         1 MOL      -0.3841
     41 OW3        21.9376   11.9488   33.9831 O.3         1 MOL      -0.3864
     42 OW4        22.4107   12.9810   37.4623 O.3         1 MOL      -0.3865
     43 OW5        19.8297   13.8970   36.1832 O.3         1 MOL      -0.3405
     44 OW6        22.2251   14.7577   33.6367 O.3         1 MOL      -0.3924
     45 CY1        13.7995   18.3016   40.8892 C.3         1 MOL       0.0073
     46 CY2        13.7718   18.4096   39.3338 C.3         1 MOL       0.1257
     47 OY2        12.5591   19.0272   38.8957 O.3         1 MOL      -0.3835
     48 CY3        13.9036   17.0266   38.6199 C.3         1 MOL       0.1127
     49 OY3        14.0529   17.2763   37.2220 O.3         1 MOL      -0.3864
     50 CY4        15.1064   16.1646   39.1272 C.3         1 MOL       0.0953
     51 OY4        15.0247   14.7889   38.6771 O.3         1 MOL      -0.3424
     52 CY5        15.1511   16.1086   40.6918 C.3         1 MOL       0.0162
     53 CY6        15.0835   17.5338   41.3165 C.3         1 MOL       0.0002
     54 CY7        16.3656   15.2987   41.2291 C.3         1 MOL       0.0497
     55 OY7        17.5898   15.6946   40.6225 O.3         1 MOL      -0.3946
     56 H1          5.0258   14.4751   41.7066 H           1 MOL       0.0935
     57 H2          6.6882   13.8633   43.3418 H           1 MOL       0.0671
     58 H3          6.2589   16.5840   44.6922 H           1 MOL       0.0648
     59 H4          8.6552   15.5118   43.1068 H           1 MOL       0.0651
     60 H5          6.6716   17.7229   42.3763 H           1 MOL       0.0647
     61 H6          9.0241   18.1069   41.4802 H           1 MOL       0.0584
     62 H7          7.7517   17.9770   40.2651 H           1 MOL       0.0584
     63 H8          3.8090   15.8448   43.0945 H           1 MOL       0.2126
     64 H9          5.3226   13.4000   44.8171 H           1 MOL       0.2101
     65 H10         7.6565   15.8837   46.1238 H           1 MOL       0.2100
     66 H11         8.3535   15.8724   39.8694 H           1 MOL       0.2095
     67 H12         9.6852   16.9466   45.7692 H           1 MOL       0.0938
     68 H13        11.6994   18.2713   45.4743 H           1 MOL       0.0672
     69 H14        10.6571   18.9879   42.6841 H           1 MOL       0.0679
     70 H15        13.1466   17.3242   43.3777 H           1 MOL       0.0903
     71 H16        10.5182   16.2728   42.2364 H           1 MOL       0.0652
     72 H17        11.4491   14.0331   42.9692 H           1 MOL       0.0257
     73 H18        13.0279   14.8094   43.1848 H           1 MOL       0.0257
     74 H19        12.2505   14.7642   41.5805 H           1 MOL       0.0257
     75 H20         9.7084   19.9466   44.4716 H           1 MOL       0.2101
     76 H21        11.8425   20.5898   43.0296 H           1 MOL       0.2102
     77 H22        11.7650   18.2054   40.9522 H           1 MOL       0.2022
     78 H23        12.4969   16.7416   40.9063 H           1 MOL       0.2022
     79 H24        14.3517   14.7738   36.7381 H           1 MOL       0.0938
     80 H25        14.3265   12.4847   37.4731 H           1 MOL       0.0671
     81 H26        15.7731   11.3810   35.7195 H           1 MOL       0.0648
     82 H27        16.9484   12.9905   34.0994 H           1 MOL       0.0651
     83 H28        17.8498   15.1071   35.3586 H           1 MOL       0.0647
     84 H29        16.4970   15.3148   33.3607 H           1 MOL       0.0584
     85 H30        16.3008   16.6364   34.5125 H           1 MOL       0.0584
     86 H31        17.1278   12.7219   37.7979 H           1 MOL       0.2101
     87 H32        14.6934   12.2766   34.0323 H           1 MOL       0.2100
     88 H33        14.3142   16.1877   34.7488 H           1 MOL       0.2095
     89 H34        19.3790   12.9961   34.3305 H           1 MOL       0.0938
     90 H35        19.9187   10.7125   35.0440 H           1 MOL       0.0671
     91 H36        22.3567   11.0552   35.7525 H           1 MOL       0.0648
     92 H37        23.1583   13.4913   35.6586 H           1 MOL       0.0647
     93 H38        21.3705   15.0864   36.6786 H           1 MOL       0.0647
     94 H39        21.4108   16.2371   34.7788 H           1 MOL       0.0584
     95 H40        20.2595   15.1459   34.0289 H           1 MOL       0.0584
     96 H41        19.1355   10.9404   37.1587 H           1 MOL       0.2101
     97 H42        21.8318   11.0329   33.6503 H           1 MOL       0.2100
     98 H43        21.5359   12.8107   37.8747 H           1 MOL       0.2100
     99 H44        22.2582   15.4502   32.9413 H           1 MOL       0.2095
    100 H45        13.8486   19.3137   41.2937 H           1 MOL       0.0877
    101 H46        14.6045   19.0408   39.0087 H           1 MOL       0.0677
    102 H47        12.8268   19.7950   38.3424 H           1 MOL       0.2102
    103 H48        12.9800   16.4585   38.7640 H           1 MOL       0.0647
    104 H49        13.2003   17.6665   36.9331 H           1 MOL       0.2100
    105 H50        16.0381   16.6209   38.7741 H           1 MOL       0.0627
    106 H51        14.2713   15.5593   41.0251 H           1 MOL       0.0351
    107 H52        15.1226   17.4762   42.4046 H           1 MOL       0.0325
    108 H53        15.9623   18.0968   40.9883 H           1 MOL       0.0325
    109 H54        16.2231   14.2306   41.0385 H           1 MOL       0.0561
    110 H55        16.4608   15.4259   42.3114 H           1 MOL       0.0561
    111 H56        17.7574   16.6024   40.9474 H           1 MOL       0.2094
@<TRIPOS>BOND
     1     2     1   1
     2     1     7   1
     3    11     1   1
     4     3     2   1
     5     2     8   1
     6     4     3   1
     7     3     9   1
     8     4     5   1
     9    10     4   1
    10     5     6   1
    11     5    11   1
    12     6    12   1
    13    13    10   1
    14    14    13   1
    15    22    13   1
    16    15    14   1
    17    14    19   1
    18    16    15   1
    19    15    20   1
    20    16    17   1
    21    21    16   1
    22    17    18   1
    23    17    22   1
    24    45    21   1
    25    23    24   1
    26    23    32   1
    27    51    23   1
    28    24    25   1
    29    24    29   1
    30    25    26   1
    31    25    30   1
    32    27    26   1
    33    26    31   1
    34    27    28   1
    35    32    27   1
    36    28    33   1
    37    31    34   1
    38    34    35   1
    39    34    43   1
    40    35    36   1
    41    35    40   1
    42    36    37   1
    43    36    41   1
    44    38    37   1
    45    37    42   1
    46    38    39   1
    47    43    38   1
    48    39    44   1
    49    46    45   1
    50    45    53   1
    51    46    47   1
    52    48    46   1
    53    48    49   1
    54    50    48   1
    55    50    51   1
    56    50    52   1
    57    52    53   1
    58    52    54   1
    59    54    55   1
    60     1    56   1
    61     2    57   1
    62     3    58   1
    63     4    59   1
    64     5    60   1
    65     6    61   1
    66     6    62   1
    67     7    63   1
    68     8    64   1
    69     9    65   1
    70    12    66   1
    71    13    67   1
    72    14    68   1
    73    15    69   1
    74    16    70   1
    75    17    71   1
    76    18    72   1
    77    18    73   1
    78    18    74   1
    79    19    75   1
    80    20    76   1
    81    21    77   1
    82    21    78   1
    83    23    79   1
    84    24    80   1
    85    25    81   1
    86    26    82   1
    87    27    83   1
    88    28    84   1
    89    28    85   1
    90    29    86   1
    91    30    87   1
    92    33    88   1
    93    34    89   1
    94    35    90   1
    95    36    91   1
    96    37    92   1
    97    38    93   1
    98    39    94   1
    99    39    95   1
   100    40    96   1
   101    41    97   1
   102    42    98   1
   103    44    99   1
   104    45   100   1
   105    46   101   1
   106    47   102   1
   107    48   103   1
   108    49   104   1
   109    50   105   1
   110    52   106   1
   111    53   107   1
   112    53   108   1
   113    54   109   1
   114    54   110   1
   115    55   111   1
@<TRIPOS>SUBSTRUCTURE
     1  MOL      1

