@<TRIPOS>MOLECULE
1xd0_ligand_021
   111   115
SMALL
GAST_HUCK
****
This file was generated by PARSER (from files_GN.cpp)

@<TRIPOS>ATOM
      1 CR1        -2.8838   17.5441   39.4348 C.3         1 MOL       0.1854
      2 CR2        -1.5332   18.0693   38.8881 C.3         1 MOL       0.1339
      3 CR3        -0.3963   17.0471   39.1772 C.3         1 MOL       0.1144
      4 CR4        -0.3331   16.6761   40.6948 C.3         1 MOL       0.1184
      5 CR5        -1.7560   16.2748   41.2116 C.3         1 MOL       0.1134
      6 CR6        -1.8663   16.1495   42.7551 C.3         1 MOL       0.0730
      7 OR1        -3.3555   16.4086   38.7055 O.3         1 MOL      -0.3649
      8 OR2        -1.6471   18.3359   37.4898 O.3         1 MOL      -0.3841
      9 OR3         0.8393   17.6240   38.7483 O.3         1 MOL      -0.3864
     10 OR4         0.5234   15.5531   41.0012 O.3         1 MOL      -0.3401
     11 OR5        -2.7656   17.2418   40.8368 O.3         1 MOL      -0.3407
     12 OR6        -0.7719   15.4818   43.3796 O.3         1 MOL      -0.3924
     13 CV1         1.8582   15.4503   40.4750 C.3         1 MOL       0.1886
     14 CV2         2.5775   14.3017   41.2313 C.3         1 MOL       0.1370
     15 CV3         4.0332   14.1392   40.7128 C.3         1 MOL       0.1304
     16 CV4         4.8294   15.4815   40.6505 C.3         1 MOL       0.0334
     17 CV5         3.9616   16.6519   40.0711 C.3         1 MOL       0.1038
     18 CV6         3.9745   16.7269   38.5171 C.3         1 MOL      -0.0332
     19 OV2         2.5612   14.5267   42.6453 O.3         1 MOL      -0.3840
     20 OV3         4.0160   13.5581   39.4056 O.3         1 MOL      -0.3834
     21 NV4         5.4069   15.9218   41.9526 N.4         1 MOL       0.2370
     22 OV5         2.6188   16.6719   40.6186 O.3         1 MOL      -0.3401
     23 CQ1        11.1029   17.7166   41.8800 C.3         1 MOL       0.1883
     24 CQ2        11.7356   18.6507   40.8136 C.3         1 MOL       0.1341
     25 CQ3        13.1898   19.0300   41.2267 C.3         1 MOL       0.1144
     26 CQ4        14.0564   17.8065   41.6800 C.3         1 MOL       0.1184
     27 CQ5        13.2779   16.8701   42.6671 C.3         1 MOL       0.1134
     28 CQ6        13.2220   17.3108   44.1541 C.3         1 MOL       0.0730
     29 OQ2        11.7051   18.0464   39.5206 O.3         1 MOL      -0.3841
     30 OQ3        13.1387   19.9787   42.2999 O.3         1 MOL      -0.3864
     31 OQ4        14.6998   17.1403   40.5553 O.3         1 MOL      -0.3401
     32 OQ5        11.9676   16.5894   42.1451 O.3         1 MOL      -0.3405
     33 OQ6        12.0333   16.7973   44.7596 O.3         1 MOL      -0.3924
     34 CW1        14.1319   16.0283   39.8230 C.3         1 MOL       0.1884
     35 CW2        14.9173   14.7148   40.1041 C.3         1 MOL       0.1341
     36 CW3        16.3125   14.7482   39.4285 C.3         1 MOL       0.1141
     37 CW4        16.1918   15.0955   37.9189 C.3         1 MOL       0.1119
     38 CW5        15.3797   16.4139   37.7378 C.3         1 MOL       0.1130
     39 CW6        15.1106   16.7257   36.2453 C.3         1 MOL       0.0730
     40 OW2        15.0649   14.4832   41.5089 O.3         1 MOL      -0.3841
     41 OW3        16.9706   13.4911   39.6126 O.3         1 MOL      -0.3864
     42 OW4        17.4969   15.2204   37.3511 O.3         1 MOL      -0.3865
     43 OW5        14.1006   16.3186   38.4088 O.3         1 MOL      -0.3405
     44 OW6        14.1519   17.7707   36.1020 O.3         1 MOL      -0.3924
     45 CY1         6.3797   15.0836   42.7182 C.3         1 MOL       0.0073
     46 CY2         7.0999   15.9837   43.7713 C.3         1 MOL       0.1257
     47 OY2         6.1306   16.6788   44.5561 O.3         1 MOL      -0.3835
     48 CY3         8.0944   16.9894   43.1111 C.3         1 MOL       0.1127
     49 OY3         8.8168   17.6846   44.1258 O.3         1 MOL      -0.3864
     50 CY4         9.1089   16.2726   42.1712 C.3         1 MOL       0.0953
     51 OY4         9.8400   17.2434   41.3821 O.3         1 MOL      -0.3424
     52 CY5         8.4200   15.3216   41.1439 C.3         1 MOL       0.0162
     53 CY6         7.4576   14.3384   41.8754 C.3         1 MOL       0.0002
     54 CY7         9.4318   14.5552   40.2421 C.3         1 MOL       0.0497
     55 OY7        10.4758   13.9317   40.9890 O.3         1 MOL      -0.3946
     56 H1         -3.6338   18.3348   39.3360 H           1 MOL       0.0935
     57 H2         -1.3010   19.0136   39.3922 H           1 MOL       0.0671
     58 H3         -0.5777   16.1344   38.5982 H           1 MOL       0.0648
     59 H4          0.0106   17.5479   41.2588 H           1 MOL       0.0651
     60 H5         -2.0259   15.3039   40.7806 H           1 MOL       0.0647
     61 H6         -2.7680   15.5779   42.9878 H           1 MOL       0.0584
     62 H7         -1.9629   17.1405   43.2058 H           1 MOL       0.0584
     63 H8         -3.5447   16.7418   37.8023 H           1 MOL       0.2126
     64 H9         -0.8801   18.9061   37.2709 H           1 MOL       0.2101
     65 H10         0.8805   17.4572   37.7827 H           1 MOL       0.2100
     66 H11         0.0112   16.0337   43.1829 H           1 MOL       0.2095
     67 H12         1.7705   15.1709   39.4204 H           1 MOL       0.0938
     68 H13         2.0388   13.3632   41.0586 H           1 MOL       0.0672
     69 H14         4.5527   13.4301   41.3590 H           1 MOL       0.0679
     70 H15         5.6729   15.3374   39.9737 H           1 MOL       0.0903
     71 H16         4.4050   17.5993   40.3920 H           1 MOL       0.0652
     72 H17         3.3486   17.5557   38.1804 H           1 MOL       0.0257
     73 H18         3.6019   15.8057   38.0666 H           1 MOL       0.0257
     74 H19         4.9941   16.8997   38.1588 H           1 MOL       0.0257
     75 H20         2.6205   15.4965   42.7663 H           1 MOL       0.2101
     76 H21         3.2910   12.9018   39.4159 H           1 MOL       0.2102
     77 H22         4.6295   16.1359   42.5815 H           1 MOL       0.2022
     78 H23         5.8789   16.8061   41.7564 H           1 MOL       0.2022
     79 H24        10.9265   18.2843   42.7963 H           1 MOL       0.0938
     80 H25        11.1276   19.5601   40.7541 H           1 MOL       0.0671
     81 H26        13.6783   19.5275   40.3808 H           1 MOL       0.0648
     82 H27        14.9078   18.2221   42.2307 H           1 MOL       0.0651
     83 H28        13.8030   15.9062   42.6743 H           1 MOL       0.0647
     84 H29        13.2329   18.4022   44.2649 H           1 MOL       0.0584
     85 H30        14.0863   16.9035   44.6861 H           1 MOL       0.0584
     86 H31        11.5828   18.7882   38.8853 H           1 MOL       0.2101
     87 H32        12.3331   20.5227   42.1579 H           1 MOL       0.2100
     88 H33        12.2131   16.7880   45.7229 H           1 MOL       0.2095
     89 H34        13.0948   15.8516   40.1002 H           1 MOL       0.0938
     90 H35        14.3436   13.8825   39.6915 H           1 MOL       0.0671
     91 H36        16.9242   15.5104   39.9228 H           1 MOL       0.0648
     92 H37        15.6722   14.2762   37.4122 H           1 MOL       0.0647
     93 H38        15.9509   17.2493   38.1620 H           1 MOL       0.0647
     94 H39        14.7202   15.8376   35.7397 H           1 MOL       0.0584
     95 H40        16.0370   17.0305   35.7501 H           1 MOL       0.0584
     96 H41        15.6991   15.1661   41.8172 H           1 MOL       0.2101
     97 H42        16.4849   12.8533   39.0484 H           1 MOL       0.2100
     98 H43        17.7100   14.3254   37.0144 H           1 MOL       0.2100
     99 H44        14.5981   18.5764   36.4376 H           1 MOL       0.2095
    100 H45         5.7992   14.3316   43.2654 H           1 MOL       0.0877
    101 H46         7.6609   15.3403   44.4565 H           1 MOL       0.0677
    102 H47         6.6232   17.3924   45.0131 H           1 MOL       0.2102
    103 H48         7.5371   17.7312   42.5337 H           1 MOL       0.0647
    104 H49         8.1790   18.3047   44.5310 H           1 MOL       0.2100
    105 H50         9.7675   15.6563   42.7952 H           1 MOL       0.0627
    106 H51         7.8201   15.9456   40.4736 H           1 MOL       0.0351
    107 H52         6.9716   13.6776   41.1550 H           1 MOL       0.0325
    108 H53         8.0400   13.7040   42.5498 H           1 MOL       0.0325
    109 H54         9.8877   15.2449   39.5276 H           1 MOL       0.0561
    110 H55         8.9081   13.7843   39.6695 H           1 MOL       0.0561
    111 H56        10.9562   13.3641   40.3452 H           1 MOL       0.2094
@<TRIPOS>BOND
     1     2     1   1
     2     1     7   1
     3    11     1   1
     4     3     2   1
     5     2     8   1
     6     4     3   1
     7     3     9   1
     8     4     5   1
     9    10     4   1
    10     5     6   1
    11     5    11   1
    12     6    12   1
    13    13    10   1
    14    14    13   1
    15    22    13   1
    16    15    14   1
    17    14    19   1
    18    16    15   1
    19    15    20   1
    20    16    17   1
    21    21    16   1
    22    17    18   1
    23    17    22   1
    24    45    21   1
    25    23    24   1
    26    23    32   1
    27    51    23   1
    28    24    25   1
    29    24    29   1
    30    25    26   1
    31    25    30   1
    32    27    26   1
    33    26    31   1
    34    27    28   1
    35    32    27   1
    36    28    33   1
    37    31    34   1
    38    34    35   1
    39    34    43   1
    40    35    36   1
    41    35    40   1
    42    36    37   1
    43    36    41   1
    44    38    37   1
    45    37    42   1
    46    38    39   1
    47    43    38   1
    48    39    44   1
    49    46    45   1
    50    45    53   1
    51    46    47   1
    52    48    46   1
    53    48    49   1
    54    50    48   1
    55    50    51   1
    56    50    52   1
    57    52    53   1
    58    52    54   1
    59    54    55   1
    60     1    56   1
    61     2    57   1
    62     3    58   1
    63     4    59   1
    64     5    60   1
    65     6    61   1
    66     6    62   1
    67     7    63   1
    68     8    64   1
    69     9    65   1
    70    12    66   1
    71    13    67   1
    72    14    68   1
    73    15    69   1
    74    16    70   1
    75    17    71   1
    76    18    72   1
    77    18    73   1
    78    18    74   1
    79    19    75   1
    80    20    76   1
    81    21    77   1
    82    21    78   1
    83    23    79   1
    84    24    80   1
    85    25    81   1
    86    26    82   1
    87    27    83   1
    88    28    84   1
    89    28    85   1
    90    29    86   1
    91    30    87   1
    92    33    88   1
    93    34    89   1
    94    35    90   1
    95    36    91   1
    96    37    92   1
    97    38    93   1
    98    39    94   1
    99    39    95   1
   100    40    96   1
   101    41    97   1
   102    42    98   1
   103    44    99   1
   104    45   100   1
   105    46   101   1
   106    47   102   1
   107    48   103   1
   108    49   104   1
   109    50   105   1
   110    52   106   1
   111    53   107   1
   112    53   108   1
   113    54   109   1
   114    54   110   1
   115    55   111   1
@<TRIPOS>SUBSTRUCTURE
     1  MOL      1

