@<TRIPOS>MOLECULE
1xd0_ligand_044
   111   115
SMALL
GAST_HUCK
****
This file was generated by PARSER (from files_GN.cpp)

@<TRIPOS>ATOM
      1 CR1        14.4157   15.8656   37.9417 C.3         1 MOL       0.1854
      2 CR2        13.1163   15.0621   38.1883 C.3         1 MOL       0.1339
      3 CR3        12.5731   15.3563   39.6104 C.3         1 MOL       0.1144
      4 CR4        13.6566   15.1516   40.7107 C.3         1 MOL       0.1184
      5 CR5        14.9962   15.8722   40.3309 C.3         1 MOL       0.1134
      6 CR6        16.1762   15.4264   41.2332 C.3         1 MOL       0.0730
      7 OR1        14.1563   17.2674   37.8595 O.3         1 MOL      -0.3649
      8 OR2        12.1404   15.3833   37.1951 O.3         1 MOL      -0.3841
      9 OR3        11.4510   14.5084   39.8625 O.3         1 MOL      -0.3864
     10 OR4        13.1458   15.3862   42.0495 O.3         1 MOL      -0.3401
     11 OR5        15.3852   15.5692   38.9681 O.3         1 MOL      -0.3407
     12 OR6        17.4334   15.7587   40.6502 O.3         1 MOL      -0.3924
     13 CV1        13.0056   16.6969   42.6573 C.3         1 MOL       0.1886
     14 CV2        12.4925   16.5598   44.1182 C.3         1 MOL       0.1370
     15 CV3        11.0203   16.0564   44.1393 C.3         1 MOL       0.1304
     16 CV4        10.0835   16.9486   43.2619 C.3         1 MOL       0.0334
     17 CV5        10.7427   17.2465   41.8791 C.3         1 MOL       0.1038
     18 CV6        10.0462   18.3833   41.0915 C.3         1 MOL      -0.0332
     19 OV2        13.3467   15.6872   44.8589 O.3         1 MOL      -0.3840
     20 OV3        10.5436   15.9837   45.4856 O.3         1 MOL      -0.3834
     21 NV4         8.6831   16.4176   43.1471 N.4         1 MOL       0.2370
     22 OV5        12.1392   17.6115   41.9572 O.3         1 MOL      -0.3401
     23 CQ1         2.9616   15.7236   41.1189 C.3         1 MOL       0.1883
     24 CQ2         2.9709   15.4238   39.5925 C.3         1 MOL       0.1341
     25 CQ3         1.5534   15.0153   39.1031 C.3         1 MOL       0.1144
     26 CQ4         0.4613   16.0466   39.5322 C.3         1 MOL       0.1184
     27 CQ5         0.6183   16.5293   41.0153 C.3         1 MOL       0.1134
     28 CQ6        -0.1532   15.6889   42.0707 C.3         1 MOL       0.0730
     29 OQ2         3.4272   16.5693   38.8676 O.3         1 MOL      -0.3841
     30 OQ3         1.2206   13.6873   39.5118 O.3         1 MOL      -0.3864
     31 OQ4         0.5628   17.2000   38.6660 O.3         1 MOL      -0.3401
     32 OQ5         1.9941   16.7569   41.4032 O.3         1 MOL      -0.3405
     33 OQ6         0.5840   14.5597   42.5195 O.3         1 MOL      -0.3924
     34 CW1        -0.1840   17.1920   37.4239 C.3         1 MOL       0.1884
     35 CW2         0.5815   17.9876   36.3339 C.3         1 MOL       0.1341
     36 CW3         0.6037   19.5008   36.6735 C.3         1 MOL       0.1141
     37 CW4        -0.8314   20.0252   36.9539 C.3         1 MOL       0.1119
     38 CW5        -1.5562   19.1302   38.0057 C.3         1 MOL       0.1130
     39 CW6        -3.0423   19.5294   38.1803 C.3         1 MOL       0.0730
     40 OW2         1.9130   17.4900   36.1965 O.3         1 MOL      -0.3841
     41 OW3         1.1789   20.2369   35.5936 O.3         1 MOL      -0.3864
     42 OW4        -0.7580   21.3715   37.4170 O.3         1 MOL      -0.3865
     43 OW5        -1.5075   17.7386   37.6140 O.3         1 MOL      -0.3405
     44 OW6        -3.8102   18.4467   38.7001 O.3         1 MOL      -0.3924
     45 CY1         8.3364   15.1663   42.3815 C.3         1 MOL       0.0073
     46 CY2         7.8382   15.3564   40.9103 C.3         1 MOL       0.1257
     47 OY2         8.7884   16.0120   40.0655 O.3         1 MOL      -0.3835
     48 CY3         6.4845   16.1144   40.8517 C.3         1 MOL       0.1127
     49 OY3         6.1098   16.2866   39.4846 O.3         1 MOL      -0.3864
     50 CY4         5.3740   15.3594   41.6353 C.3         1 MOL       0.0953
     51 OY4         4.2131   16.2270   41.6266 O.3         1 MOL      -0.3424
     52 CY5         5.8179   15.0406   43.1064 C.3         1 MOL       0.0162
     53 CY6         7.2359   14.3727   43.1508 C.3         1 MOL       0.0002
     54 CY7         4.7908   14.1251   43.8478 C.3         1 MOL       0.0497
     55 OY7         3.4698   14.6658   43.8929 O.3         1 MOL      -0.3946
     56 H1         14.8396   15.5545   36.9851 H           1 MOL       0.0935
     57 H2         13.3433   13.9951   38.1034 H           1 MOL       0.0671
     58 H3         12.2331   16.3934   39.6299 H           1 MOL       0.0648
     59 H4         13.8757   14.0804   40.6979 H           1 MOL       0.0651
     60 H5         14.8724   16.9548   40.4275 H           1 MOL       0.0647
     61 H6         16.1552   14.3419   41.3589 H           1 MOL       0.0584
     62 H7         16.1097   15.8885   42.2203 H           1 MOL       0.0584
     63 H8         15.0354   17.6951   37.9331 H           1 MOL       0.2126
     64 H9         11.4628   14.6756   37.2563 H           1 MOL       0.2101
     65 H10        11.7926   13.5906   39.7968 H           1 MOL       0.2100
     66 H11        17.6618   16.6542   40.9761 H           1 MOL       0.2095
     67 H12        13.9891   17.1699   42.7055 H           1 MOL       0.0938
     68 H13        12.5379   17.5437   44.5941 H           1 MOL       0.0672
     69 H14        11.0192   15.0360   43.7549 H           1 MOL       0.0679
     70 H15         9.9958   17.9049   43.7864 H           1 MOL       0.0903
     71 H16        10.6794   16.3322   41.2991 H           1 MOL       0.0652
     72 H17        10.4654   18.4498   40.0876 H           1 MOL       0.0257
     73 H18        10.2131   19.3404   41.5897 H           1 MOL       0.0257
     74 H19         8.9729   18.2065   41.0010 H           1 MOL       0.0257
     75 H20        13.1135   15.8310   45.8026 H           1 MOL       0.2101
     76 H21        11.0253   16.6789   45.9874 H           1 MOL       0.2102
     77 H22         8.1021   17.1716   42.7780 H           1 MOL       0.2022
     78 H23         8.3750   16.2669   44.1116 H           1 MOL       0.2022
     79 H24         2.7167   14.8177   41.6764 H           1 MOL       0.0938
     80 H25         3.6631   14.6042   39.3769 H           1 MOL       0.0671
     81 H26         1.5873   14.9625   38.0130 H           1 MOL       0.0648
     82 H27        -0.5291   15.5940   39.4198 H           1 MOL       0.0651
     83 H28         0.1546   17.5197   41.0713 H           1 MOL       0.0647
     84 H29        -1.0998   15.3468   41.6405 H           1 MOL       0.0584
     85 H30        -0.3812   16.3098   42.9413 H           1 MOL       0.0584
     86 H31         2.8333   17.3027   39.1313 H           1 MOL       0.2101
     87 H32         1.1597   13.7029   40.4855 H           1 MOL       0.2100
     88 H33        -0.0500   13.8176   42.5281 H           1 MOL       0.2095
     89 H34        -0.3132   16.1732   37.0473 H           1 MOL       0.0938
     90 H35         0.0712   17.8476   35.3751 H           1 MOL       0.0671
     91 H36         1.2261   19.6647   37.5595 H           1 MOL       0.0648
     92 H37        -1.4010   20.0120   36.0201 H           1 MOL       0.0647
     93 H38        -1.0661   19.2478   38.9785 H           1 MOL       0.0647
     94 H39        -3.4724   19.8147   37.2176 H           1 MOL       0.0584
     95 H40        -3.1261   20.3767   38.8649 H           1 MOL       0.0584
     96 H41         1.8160   16.5823   35.8369 H           1 MOL       0.2101
     97 H42         2.1292   19.9942   35.5892 H           1 MOL       0.2100
     98 H43        -0.9241   21.9268   36.6263 H           1 MOL       0.2100
     99 H44        -3.4857   18.3113   39.6144 H           1 MOL       0.2095
    100 H45         9.2107   14.5185   42.3341 H           1 MOL       0.0877
    101 H46         7.6835   14.3566   40.4779 H           1 MOL       0.0677
    102 H47         8.4460   15.8650   39.1444 H           1 MOL       0.2102
    103 H48         6.6115   17.1152   41.2730 H           1 MOL       0.0647
    104 H49         5.9697   15.3814   39.1361 H           1 MOL       0.2100
    105 H50         5.1868   14.4081   41.1218 H           1 MOL       0.0627
    106 H51         5.8772   15.9857   43.6583 H           1 MOL       0.0351
    107 H52         7.5486   14.2464   44.1916 H           1 MOL       0.0325
    108 H53         7.1644   13.3697   42.7166 H           1 MOL       0.0325
    109 H54         5.1115   13.9680   44.8817 H           1 MOL       0.0561
    110 H55         4.7378   13.1465   43.3584 H           1 MOL       0.0561
    111 H56         3.5932   15.6089   44.1431 H           1 MOL       0.2094
@<TRIPOS>BOND
     1     2     1   1
     2     1     7   1
     3    11     1   1
     4     3     2   1
     5     2     8   1
     6     4     3   1
     7     3     9   1
     8     4     5   1
     9    10     4   1
    10     5     6   1
    11     5    11   1
    12     6    12   1
    13    13    10   1
    14    14    13   1
    15    22    13   1
    16    15    14   1
    17    14    19   1
    18    16    15   1
    19    15    20   1
    20    16    17   1
    21    21    16   1
    22    17    18   1
    23    17    22   1
    24    45    21   1
    25    23    24   1
    26    23    32   1
    27    51    23   1
    28    24    25   1
    29    24    29   1
    30    25    26   1
    31    25    30   1
    32    27    26   1
    33    26    31   1
    34    27    28   1
    35    32    27   1
    36    28    33   1
    37    31    34   1
    38    34    35   1
    39    34    43   1
    40    35    36   1
    41    35    40   1
    42    36    37   1
    43    36    41   1
    44    38    37   1
    45    37    42   1
    46    38    39   1
    47    43    38   1
    48    39    44   1
    49    46    45   1
    50    45    53   1
    51    46    47   1
    52    48    46   1
    53    48    49   1
    54    50    48   1
    55    50    51   1
    56    50    52   1
    57    52    53   1
    58    52    54   1
    59    54    55   1
    60     1    56   1
    61     2    57   1
    62     3    58   1
    63     4    59   1
    64     5    60   1
    65     6    61   1
    66     6    62   1
    67     7    63   1
    68     8    64   1
    69     9    65   1
    70    12    66   1
    71    13    67   1
    72    14    68   1
    73    15    69   1
    74    16    70   1
    75    17    71   1
    76    18    72   1
    77    18    73   1
    78    18    74   1
    79    19    75   1
    80    20    76   1
    81    21    77   1
    82    21    78   1
    83    23    79   1
    84    24    80   1
    85    25    81   1
    86    26    82   1
    87    27    83   1
    88    28    84   1
    89    28    85   1
    90    29    86   1
    91    30    87   1
    92    33    88   1
    93    34    89   1
    94    35    90   1
    95    36    91   1
    96    37    92   1
    97    38    93   1
    98    39    94   1
    99    39    95   1
   100    40    96   1
   101    41    97   1
   102    42    98   1
   103    44    99   1
   104    45   100   1
   105    46   101   1
   106    47   102   1
   107    48   103   1
   108    49   104   1
   109    50   105   1
   110    52   106   1
   111    53   107   1
   112    53   108   1
   113    54   109   1
   114    54   110   1
   115    55   111   1
@<TRIPOS>SUBSTRUCTURE
     1  MOL      1

