@<TRIPOS>MOLECULE
1xd0_ligand_049
   111   115
SMALL
GAST_HUCK
****
This file was generated by PARSER (from files_GN.cpp)

@<TRIPOS>ATOM
      1 CR1        10.4432   17.1962   45.1611 C.3         1 MOL       0.1854
      2 CR2        11.1536   18.5528   44.9372 C.3         1 MOL       0.1339
      3 CR3        11.6428   18.6896   43.4681 C.3         1 MOL       0.1144
      4 CR4        12.5032   17.4582   43.0278 C.3         1 MOL       0.1184
      5 CR5        11.7249   16.1438   43.3572 C.3         1 MOL       0.1134
      6 CR6        12.5640   14.8581   43.1298 C.3         1 MOL       0.0730
      7 OR1         9.1670   17.1438   44.5210 O.3         1 MOL      -0.3649
      8 OR2        10.2918   19.6293   45.3045 O.3         1 MOL      -0.3841
      9 OR3        12.3814   19.9060   43.3645 O.3         1 MOL      -0.3864
     10 OR4        12.7601   17.4684   41.6063 O.3         1 MOL      -0.3401
     11 OR5        11.2878   16.1138   44.7360 O.3         1 MOL      -0.3407
     12 OR6        12.4186   14.3507   41.8083 O.3         1 MOL      -0.3924
     13 CV1        13.8097   18.3014   41.0587 C.3         1 MOL       0.1886
     14 CV2        13.4030   18.7560   39.6370 C.3         1 MOL       0.1370
     15 CV3        13.4601   17.5726   38.6361 C.3         1 MOL       0.1304
     16 CV4        14.8377   16.8458   38.6839 C.3         1 MOL       0.0334
     17 CV5        15.2338   16.5000   40.1620 C.3         1 MOL       0.1038
     18 CV6        16.7028   16.0553   40.3184 C.3         1 MOL      -0.0332
     19 OV2        12.0893   19.3139   39.7080 O.3         1 MOL      -0.3840
     20 OV3        13.2044   18.0501   37.3107 O.3         1 MOL      -0.3834
     21 NV4        14.9212   15.6981   37.7268 N.4         1 MOL       0.2370
     22 OV5        15.0823   17.6409   41.0404 O.3         1 MOL      -0.3401
     23 CQ1        15.1168   12.9736   32.9528 C.3         1 MOL       0.1883
     24 CQ2        15.7042   12.0045   31.8719 C.3         1 MOL       0.1341
     25 CQ3        17.1229   12.4286   31.3761 C.3         1 MOL       0.1144
     26 CQ4        18.0492   12.8303   32.5570 C.3         1 MOL       0.1184
     27 CQ5        17.3730   13.9428   33.4306 C.3         1 MOL       0.1134
     28 CQ6        18.0438   15.3303   33.2500 C.3         1 MOL       0.0730
     29 OQ2        15.7624   10.6554   32.3503 O.3         1 MOL      -0.3841
     30 OQ3        17.0274   13.5032   30.4365 O.3         1 MOL      -0.3864
     31 OQ4        18.2729   11.6515   33.3767 O.3         1 MOL      -0.3401
     32 OQ5        15.9575   14.1181   33.2070 O.3         1 MOL      -0.3405
     33 OQ6        17.1245   16.3991   33.4718 O.3         1 MOL      -0.3924
     34 CW1        19.6350   11.1935   33.5479 C.3         1 MOL       0.1884
     35 CW2        19.6365    9.8186   34.2657 C.3         1 MOL       0.1341
     36 CW3        19.1730    9.9870   35.7350 C.3         1 MOL       0.1141
     37 CW4        20.0390   11.0504   36.4685 C.3         1 MOL       0.1119
     38 CW5        20.1254   12.3749   35.6537 C.3         1 MOL       0.1130
     39 CW6        21.1832   13.3453   36.2375 C.3         1 MOL       0.0730
     40 OW2        18.8012    8.8921   33.5759 O.3         1 MOL      -0.3841
     41 OW3        19.2450    8.7390   36.4328 O.3         1 MOL      -0.3864
     42 OW4        19.4585   11.2679   37.7682 O.3         1 MOL      -0.3865
     43 OW5        20.4557   12.1397   34.2737 O.3         1 MOL      -0.3405
     44 OW6        20.7510   14.7045   36.1016 O.3         1 MOL      -0.3924
     45 CY1        14.0442   14.4960   37.8981 C.3         1 MOL       0.0073
     46 CY2        14.8661   13.1767   37.8202 C.3         1 MOL       0.1257
     47 OY2        15.9656   13.1801   38.7279 O.3         1 MOL      -0.3835
     48 CY3        15.3708   12.9102   36.3834 C.3         1 MOL       0.1127
     49 OY3        16.1813   11.7300   36.3650 O.3         1 MOL      -0.3864
     50 CY4        14.1882   12.7543   35.3842 C.3         1 MOL       0.0953
     51 OY4        14.6897   12.2347   34.1265 O.3         1 MOL      -0.3424
     52 CY5        13.2694   14.0292   35.3947 C.3         1 MOL       0.0162
     53 CY6        12.8811   14.4433   36.8620 C.3         1 MOL       0.0002
     54 CY7        11.9698   13.8677   34.5482 C.3         1 MOL       0.0497
     55 OY7        10.9901   13.0215   35.1591 O.3         1 MOL      -0.3946
     56 H1         10.2679   17.0613   46.2312 H           1 MOL       0.0935
     57 H2         12.0239   18.5957   45.5956 H           1 MOL       0.0671
     58 H3         10.7780   18.7671   42.8021 H           1 MOL       0.0648
     59 H4         13.4459   17.4612   43.5857 H           1 MOL       0.0651
     60 H5         10.8395   16.0753   42.7137 H           1 MOL       0.0647
     61 H6         12.2375   14.0750   43.8167 H           1 MOL       0.0584
     62 H7         13.6218   15.0542   43.3202 H           1 MOL       0.0584
     63 H8          8.5286   17.5050   45.1862 H           1 MOL       0.2126
     64 H9          9.8796   19.9347   44.4688 H           1 MOL       0.2101
     65 H10        11.7359   20.5799   43.0654 H           1 MOL       0.2100
     66 H11        11.4869   14.0376   41.7544 H           1 MOL       0.2095
     67 H12        13.9564   19.2028   41.6491 H           1 MOL       0.0938
     68 H13        14.0896   19.5430   39.3021 H           1 MOL       0.0672
     69 H14        12.6650   16.8700   38.8897 H           1 MOL       0.0679
     70 H15        15.5777   17.5671   38.3235 H           1 MOL       0.0903
     71 H16        14.5981   15.6959   40.5303 H           1 MOL       0.0652
     72 H17        16.9255   15.8663   41.3709 H           1 MOL       0.0257
     73 H18        17.3753   16.8304   39.9442 H           1 MOL       0.0257
     74 H19        16.8884   15.1371   39.7624 H           1 MOL       0.0257
     75 H20        11.8027   19.4152   38.7797 H           1 MOL       0.2101
     76 H21        13.9191   18.7045   37.1301 H           1 MOL       0.2102
     77 H22        15.8936   15.3825   37.7354 H           1 MOL       0.2022
     78 H23        14.7449   16.0722   36.7882 H           1 MOL       0.2022
     79 H24        14.2212   13.4099   32.5140 H           1 MOL       0.0938
     80 H25        15.0396   11.9882   31.0048 H           1 MOL       0.0671
     81 H26        17.5818   11.5921   30.8327 H           1 MOL       0.0648
     82 H27        19.0015   13.2026   32.1310 H           1 MOL       0.0651
     83 H28        17.5231   13.6762   34.4776 H           1 MOL       0.0647
     84 H29        18.4487   15.4377   32.2397 H           1 MOL       0.0584
     85 H30        18.8806   15.4230   33.9545 H           1 MOL       0.0584
     86 H31        15.9472   10.1065   31.5604 H           1 MOL       0.2101
     87 H32        16.5471   14.2175   30.9025 H           1 MOL       0.2100
     88 H33        16.7414   16.2382   34.3656 H           1 MOL       0.2095
     89 H34        20.0919   11.0449   32.5616 H           1 MOL       0.0938
     90 H35        20.6553    9.4216   34.2510 H           1 MOL       0.0671
     91 H36        18.1340   10.3121   35.7396 H           1 MOL       0.0648
     92 H37        21.0524   10.6375   36.6071 H           1 MOL       0.0647
     93 H38        19.1521   12.8697   35.7162 H           1 MOL       0.0647
     94 H39        22.1413   13.2250   35.7103 H           1 MOL       0.0584
     95 H40        21.3417   13.1647   37.3085 H           1 MOL       0.0584
     96 H41        17.9026    9.2766   33.6096 H           1 MOL       0.2101
     97 H42        18.6209    8.8419   37.1759 H           1 MOL       0.2100
     98 H43        20.1499   11.7099   38.3049 H           1 MOL       0.2100
     99 H44        20.8224   14.9002   35.1344 H           1 MOL       0.2095
    100 H45        13.5951   14.5108   38.8915 H           1 MOL       0.0877
    101 H46        14.2292   12.3416   38.1084 H           1 MOL       0.0677
    102 H47        15.5568   13.1971   39.6217 H           1 MOL       0.2102
    103 H48        15.9911   13.7507   36.0788 H           1 MOL       0.0647
    104 H49        15.6453   11.0410   36.8192 H           1 MOL       0.2100
    105 H50        13.5802   11.9340   35.7720 H           1 MOL       0.0627
    106 H51        13.8447   14.8505   34.9615 H           1 MOL       0.0351
    107 H52        12.3855   15.4153   36.8342 H           1 MOL       0.0325
    108 H53        12.1438   13.7281   37.2419 H           1 MOL       0.0325
    109 H54        12.1861   13.4638   33.5589 H           1 MOL       0.0561
    110 H55        11.5086   14.8496   34.3999 H           1 MOL       0.0561
    111 H56        11.3901   12.1242   35.1777 H           1 MOL       0.2094
@<TRIPOS>BOND
     1     2     1   1
     2     1     7   1
     3    11     1   1
     4     3     2   1
     5     2     8   1
     6     4     3   1
     7     3     9   1
     8     4     5   1
     9    10     4   1
    10     5     6   1
    11     5    11   1
    12     6    12   1
    13    13    10   1
    14    14    13   1
    15    22    13   1
    16    15    14   1
    17    14    19   1
    18    16    15   1
    19    15    20   1
    20    16    17   1
    21    21    16   1
    22    17    18   1
    23    17    22   1
    24    45    21   1
    25    23    24   1
    26    23    32   1
    27    51    23   1
    28    24    25   1
    29    24    29   1
    30    25    26   1
    31    25    30   1
    32    27    26   1
    33    26    31   1
    34    27    28   1
    35    32    27   1
    36    28    33   1
    37    31    34   1
    38    34    35   1
    39    34    43   1
    40    35    36   1
    41    35    40   1
    42    36    37   1
    43    36    41   1
    44    38    37   1
    45    37    42   1
    46    38    39   1
    47    43    38   1
    48    39    44   1
    49    46    45   1
    50    45    53   1
    51    46    47   1
    52    48    46   1
    53    48    49   1
    54    50    48   1
    55    50    51   1
    56    50    52   1
    57    52    53   1
    58    52    54   1
    59    54    55   1
    60     1    56   1
    61     2    57   1
    62     3    58   1
    63     4    59   1
    64     5    60   1
    65     6    61   1
    66     6    62   1
    67     7    63   1
    68     8    64   1
    69     9    65   1
    70    12    66   1
    71    13    67   1
    72    14    68   1
    73    15    69   1
    74    16    70   1
    75    17    71   1
    76    18    72   1
    77    18    73   1
    78    18    74   1
    79    19    75   1
    80    20    76   1
    81    21    77   1
    82    21    78   1
    83    23    79   1
    84    24    80   1
    85    25    81   1
    86    26    82   1
    87    27    83   1
    88    28    84   1
    89    28    85   1
    90    29    86   1
    91    30    87   1
    92    33    88   1
    93    34    89   1
    94    35    90   1
    95    36    91   1
    96    37    92   1
    97    38    93   1
    98    39    94   1
    99    39    95   1
   100    40    96   1
   101    41    97   1
   102    42    98   1
   103    44    99   1
   104    45   100   1
   105    46   101   1
   106    47   102   1
   107    48   103   1
   108    49   104   1
   109    50   105   1
   110    52   106   1
   111    53   107   1
   112    53   108   1
   113    54   109   1
   114    54   110   1
   115    55   111   1
@<TRIPOS>SUBSTRUCTURE
     1  MOL      1

