@<TRIPOS>MOLECULE
1xd0_ligand_020
   111   115
SMALL
GAST_HUCK
****
This file was generated by PARSER (from files_GN.cpp)

@<TRIPOS>ATOM
      1 CR1         2.7875   14.8264   38.4291 C.3         1 MOL       0.1854
      2 CR2         3.8116   15.9343   38.0872 C.3         1 MOL       0.1339
      3 CR3         4.8604   16.0761   39.2208 C.3         1 MOL       0.1144
      4 CR4         4.1953   16.2457   40.6307 C.3         1 MOL       0.1184
      5 CR5         3.0802   15.1691   40.8494 C.3         1 MOL       0.1134
      6 CR6         2.1566   15.4747   42.0550 C.3         1 MOL       0.0730
      7 OR1         3.3462   13.5127   38.3598 O.3         1 MOL      -0.3649
      8 OR2         4.4607   15.6544   36.8483 O.3         1 MOL      -0.3841
      9 OR3         5.7159   17.1758   38.9157 O.3         1 MOL      -0.3864
     10 OR4         5.0752   16.2940   41.7917 O.3         1 MOL      -0.3401
     11 OR5         2.1884   15.0816   39.7123 O.3         1 MOL      -0.3407
     12 OR6         2.6849   15.0110   43.2895 O.3         1 MOL      -0.3924
     13 CV1         6.2632   15.4703   41.8710 C.3         1 MOL       0.1886
     14 CV2         6.6202   14.9887   43.3104 C.3         1 MOL       0.1370
     15 CV3         7.3100   16.0786   44.1854 C.3         1 MOL       0.1304
     16 CV4         8.4549   16.7830   43.3848 C.3         1 MOL       0.0334
     17 CV5         7.7909   17.3449   42.0854 C.3         1 MOL       0.1038
     18 CV6         8.7150   18.1845   41.1803 C.3         1 MOL      -0.0332
     19 OV2         5.4402   14.4988   43.9421 O.3         1 MOL      -0.3840
     20 OV3         7.8014   15.4756   45.3818 O.3         1 MOL      -0.3834
     21 NV4         9.1576   17.8335   44.1801 N.4         1 MOL       0.2370
     22 OV5         7.3615   16.2086   41.3020 O.3         1 MOL      -0.3401
     23 CQ1        12.5106   16.7990   40.3779 C.3         1 MOL       0.1883
     24 CQ2        13.1084   15.4493   39.8965 C.3         1 MOL       0.1341
     25 CQ3        12.2676   14.8825   38.7172 C.3         1 MOL       0.1144
     26 CQ4        12.0572   15.9107   37.5669 C.3         1 MOL       0.1184
     27 CQ5        11.7050   17.3363   38.1011 C.3         1 MOL       0.1134
     28 CQ6        10.1792   17.5359   38.3357 C.3         1 MOL       0.0730
     29 OQ2        14.4723   15.6429   39.5145 O.3         1 MOL      -0.3841
     30 OQ3        11.0045   14.4105   39.2020 O.3         1 MOL      -0.3864
     31 OQ4        13.2737   15.9351   36.7738 O.3         1 MOL      -0.3401
     32 OQ5        12.4893   17.7159   39.2609 O.3         1 MOL      -0.3405
     33 OQ6         9.4475   17.5857   37.1115 O.3         1 MOL      -0.3924
     34 CW1        13.2195   15.4795   35.3981 C.3         1 MOL       0.1884
     35 CW2        13.9176   14.1005   35.2736 C.3         1 MOL       0.1341
     36 CW3        15.4476   14.2340   35.4728 C.3         1 MOL       0.1141
     37 CW4        16.0211   15.3056   34.5096 C.3         1 MOL       0.1119
     38 CW5        15.2347   16.6486   34.6274 C.3         1 MOL       0.1130
     39 CW6        15.6620   17.6693   33.5373 C.3         1 MOL       0.0730
     40 OW2        13.3555   13.1880   36.2190 O.3         1 MOL      -0.3841
     41 OW3        16.0584   12.9659   35.2330 O.3         1 MOL      -0.3864
     42 OW4        17.4003   15.5167   34.7918 O.3         1 MOL      -0.3865
     43 OW5        13.8096   16.4424   34.5015 O.3         1 MOL      -0.3405
     44 OW6        14.8169   17.6308   32.3875 O.3         1 MOL      -0.3924
     45 CY1        10.5063   17.6546   44.8329 C.3         1 MOL       0.0073
     46 CY2        11.4468   18.8584   44.5179 C.3         1 MOL       0.1257
     47 OY2        10.7718   20.0805   44.8220 O.3         1 MOL      -0.3835
     48 CY3        11.9800   18.7876   43.0524 C.3         1 MOL       0.1127
     49 OY3        12.7992   19.9276   42.7752 O.3         1 MOL      -0.3864
     50 CY4        12.8217   17.4921   42.8127 C.3         1 MOL       0.0953
     51 OY4        13.3091   17.3868   41.4425 O.3         1 MOL      -0.3424
     52 CY5        12.1535   16.1693   43.3387 C.3         1 MOL       0.0162
     53 CY6        11.3468   16.3417   44.6751 C.3         1 MOL       0.0002
     54 CY7        13.2011   15.0211   43.4996 C.3         1 MOL       0.0497
     55 OY7        14.3194   15.4251   44.2936 O.3         1 MOL      -0.3946
     56 H1          1.9840   14.8603   37.6906 H           1 MOL       0.0935
     57 H2          3.2745   16.8813   37.9832 H           1 MOL       0.0671
     58 H3          5.4785   15.1783   39.2149 H           1 MOL       0.0648
     59 H4          3.6982   17.2213   40.6166 H           1 MOL       0.0651
     60 H5          3.5471   14.1949   41.0147 H           1 MOL       0.0647
     61 H6          1.1962   14.9731   41.9113 H           1 MOL       0.0584
     62 H7          1.9648   16.5481   42.1326 H           1 MOL       0.0584
     63 H8          4.0325   13.4731   39.0568 H           1 MOL       0.2126
     64 H9          3.7683   15.7638   36.1644 H           1 MOL       0.2101
     65 H10         5.1204   17.9297   38.7266 H           1 MOL       0.2100
     66 H11         3.4414   15.6034   43.4925 H           1 MOL       0.2095
     67 H12         6.1130   14.5638   41.2758 H           1 MOL       0.0938
     68 H13         7.3157   14.1470   43.2058 H           1 MOL       0.0672
     69 H14         6.5577   16.8227   44.4782 H           1 MOL       0.0679
     70 H15         9.1757   16.0273   43.0788 H           1 MOL       0.0903
     71 H16         6.9444   17.9948   42.3411 H           1 MOL       0.0652
     72 H17         8.2476   18.3289   40.2014 H           1 MOL       0.0257
     73 H18         9.6535   17.6686   41.0413 H           1 MOL       0.0257
     74 H19         8.8998   19.1758   41.6058 H           1 MOL       0.0257
     75 H20         5.6942   13.6363   44.3291 H           1 MOL       0.2101
     76 H21         7.9496   16.2199   46.0061 H           1 MOL       0.2102
     77 H22         8.5147   18.0972   44.9329 H           1 MOL       0.2022
     78 H23         9.2324   18.6686   43.5938 H           1 MOL       0.2022
     79 H24        11.4959   16.6277   40.7229 H           1 MOL       0.0938
     80 H25        13.0806   14.7236   40.7115 H           1 MOL       0.0671
     81 H26        12.7843   14.0131   38.3096 H           1 MOL       0.0648
     82 H27        11.2161   15.5374   36.9713 H           1 MOL       0.0651
     83 H28        11.9897   18.0531   37.3261 H           1 MOL       0.0647
     84 H29        10.0102   18.4699   38.8708 H           1 MOL       0.0584
     85 H30         9.7765   16.7232   38.9327 H           1 MOL       0.0584
     86 H31        14.8384   14.7386   39.4149 H           1 MOL       0.2101
     87 H32        11.1814   13.5275   39.5885 H           1 MOL       0.2100
     88 H33         9.3099   16.6531   36.8449 H           1 MOL       0.2095
     89 H34        12.1916   15.3286   35.0584 H           1 MOL       0.0938
     90 H35        13.7220   13.7030   34.2719 H           1 MOL       0.0671
     91 H36        15.6530   14.5187   36.5090 H           1 MOL       0.0648
     92 H37        15.9367   14.9330   33.4874 H           1 MOL       0.0647
     93 H38        15.4412   17.1015   35.6022 H           1 MOL       0.0647
     94 H39        16.6803   17.4585   33.2078 H           1 MOL       0.0584
     95 H40        15.6450   18.6818   33.9515 H           1 MOL       0.0584
     96 H41        13.7319   12.3116   35.9848 H           1 MOL       0.2101
     97 H42        16.9675   13.0399   35.5893 H           1 MOL       0.2100
     98 H43        17.8647   14.7354   34.4237 H           1 MOL       0.2100
     99 H44        13.9417   17.9520   32.6904 H           1 MOL       0.2095
    100 H45        10.2833   17.7227   45.9065 H           1 MOL       0.0877
    101 H46        12.3051   18.8205   45.1971 H           1 MOL       0.0677
    102 H47        11.3629   20.8029   44.5253 H           1 MOL       0.2102
    103 H48        11.1405   18.8167   42.3611 H           1 MOL       0.0647
    104 H49        12.1778   20.6362   42.5026 H           1 MOL       0.2100
    105 H50        13.7318   17.6448   43.4015 H           1 MOL       0.0627
    106 H51        11.4367   15.8368   42.5893 H           1 MOL       0.0351
    107 H52        10.6899   15.4808   44.8149 H           1 MOL       0.0325
    108 H53        12.0579   16.3199   45.5090 H           1 MOL       0.0325
    109 H54        13.5795   14.7109   42.5255 H           1 MOL       0.0561
    110 H55        12.7349   14.1496   43.9728 H           1 MOL       0.0561
    111 H56        14.7047   14.5958   44.6462 H           1 MOL       0.2094
@<TRIPOS>BOND
     1     2     1   1
     2     1     7   1
     3    11     1   1
     4     3     2   1
     5     2     8   1
     6     4     3   1
     7     3     9   1
     8     4     5   1
     9    10     4   1
    10     5     6   1
    11     5    11   1
    12     6    12   1
    13    13    10   1
    14    14    13   1
    15    22    13   1
    16    15    14   1
    17    14    19   1
    18    16    15   1
    19    15    20   1
    20    16    17   1
    21    21    16   1
    22    17    18   1
    23    17    22   1
    24    45    21   1
    25    23    24   1
    26    23    32   1
    27    51    23   1
    28    24    25   1
    29    24    29   1
    30    25    26   1
    31    25    30   1
    32    27    26   1
    33    26    31   1
    34    27    28   1
    35    32    27   1
    36    28    33   1
    37    31    34   1
    38    34    35   1
    39    34    43   1
    40    35    36   1
    41    35    40   1
    42    36    37   1
    43    36    41   1
    44    38    37   1
    45    37    42   1
    46    38    39   1
    47    43    38   1
    48    39    44   1
    49    46    45   1
    50    45    53   1
    51    46    47   1
    52    48    46   1
    53    48    49   1
    54    50    48   1
    55    50    51   1
    56    50    52   1
    57    52    53   1
    58    52    54   1
    59    54    55   1
    60     1    56   1
    61     2    57   1
    62     3    58   1
    63     4    59   1
    64     5    60   1
    65     6    61   1
    66     6    62   1
    67     7    63   1
    68     8    64   1
    69     9    65   1
    70    12    66   1
    71    13    67   1
    72    14    68   1
    73    15    69   1
    74    16    70   1
    75    17    71   1
    76    18    72   1
    77    18    73   1
    78    18    74   1
    79    19    75   1
    80    20    76   1
    81    21    77   1
    82    21    78   1
    83    23    79   1
    84    24    80   1
    85    25    81   1
    86    26    82   1
    87    27    83   1
    88    28    84   1
    89    28    85   1
    90    29    86   1
    91    30    87   1
    92    33    88   1
    93    34    89   1
    94    35    90   1
    95    36    91   1
    96    37    92   1
    97    38    93   1
    98    39    94   1
    99    39    95   1
   100    40    96   1
   101    41    97   1
   102    42    98   1
   103    44    99   1
   104    45   100   1
   105    46   101   1
   106    47   102   1
   107    48   103   1
   108    49   104   1
   109    50   105   1
   110    52   106   1
   111    53   107   1
   112    53   108   1
   113    54   109   1
   114    54   110   1
   115    55   111   1
@<TRIPOS>SUBSTRUCTURE
     1  MOL      1

