@<TRIPOS>MOLECULE
1xd0_ligand_033
   111   115
SMALL
GAST_HUCK
****
This file was generated by PARSER (from files_GN.cpp)

@<TRIPOS>ATOM
      1 CR1        15.7878   15.1781   40.4971 C.3         1 MOL       0.1854
      2 CR2        15.7985   15.1903   42.0470 C.3         1 MOL       0.1339
      3 CR3        14.4163   15.6353   42.6028 C.3         1 MOL       0.1144
      4 CR4        13.9418   16.9668   41.9501 C.3         1 MOL       0.1184
      5 CR5        13.9837   16.8289   40.3941 C.3         1 MOL       0.1134
      6 CR6        13.6003   18.1197   39.6292 C.3         1 MOL       0.0730
      7 OR1        15.0174   14.0809   40.0008 O.3         1 MOL      -0.3649
      8 OR2        16.1462   13.9022   42.5536 O.3         1 MOL      -0.3841
      9 OR3        14.4857   15.7813   44.0223 O.3         1 MOL      -0.3864
     10 OR4        12.5996   17.2186   42.4201 O.3         1 MOL      -0.3401
     11 OR5        15.3102   16.4356   39.9736 O.3         1 MOL      -0.3407
     12 OR6        12.1939   18.1776   39.4067 O.3         1 MOL      -0.3924
     13 CV1        12.0530   18.5604   42.3941 C.3         1 MOL       0.1886
     14 CV2        11.7250   19.0691   43.8238 C.3         1 MOL       0.1370
     15 CV3        10.6203   18.1838   44.4665 C.3         1 MOL       0.1304
     16 CV4         9.3711   18.0510   43.5409 C.3         1 MOL       0.0334
     17 CV5         9.7826   17.7199   42.0694 C.3         1 MOL       0.1038
     18 CV6         8.6311   17.8862   41.0526 C.3         1 MOL      -0.0332
     19 OV2        12.9028   19.0704   44.6330 O.3         1 MOL      -0.3840
     20 OV3        10.2317   18.7741   45.7118 O.3         1 MOL      -0.3834
     21 NV4         8.2836   17.2101   44.1193 N.4         1 MOL       0.2370
     22 OV5        10.8428   18.5839   41.6102 O.3         1 MOL      -0.3401
     23 CQ1         3.2268   15.4626   42.4875 C.3         1 MOL       0.1883
     24 CQ2         2.6818   14.0751   42.0340 C.3         1 MOL       0.1341
     25 CQ3         2.0107   14.1212   40.6273 C.3         1 MOL       0.1144
     26 CQ4         2.8621   14.9171   39.5894 C.3         1 MOL       0.1184
     27 CQ5         3.2970   16.3113   40.1542 C.3         1 MOL       0.1134
     28 CQ6         2.2575   17.4610   40.0529 C.3         1 MOL       0.0730
     29 OQ2         3.6889   13.0768   42.0266 O.3         1 MOL      -0.3841
     30 OQ3         0.6861   14.6531   40.7151 O.3         1 MOL      -0.3864
     31 OQ4         3.9645   14.0459   39.2407 O.3         1 MOL      -0.3401
     32 OQ5         3.9146   16.1850   41.4501 O.3         1 MOL      -0.3405
     33 OQ6         0.9433   17.1794   40.5223 O.3         1 MOL      -0.3924
     34 CW1         4.9811   14.4957   38.3211 C.3         1 MOL       0.1884
     35 CW2         5.5922   13.2845   37.5678 C.3         1 MOL       0.1341
     36 CW3         6.8142   13.7386   36.7154 C.3         1 MOL       0.1141
     37 CW4         7.8353   14.5694   37.5455 C.3         1 MOL       0.1119
     38 CW5         7.1555   15.6731   38.4126 C.3         1 MOL       0.1130
     39 CW6         6.8237   16.9998   37.6766 C.3         1 MOL       0.0730
     40 OW2         5.9755   12.2643   38.4980 O.3         1 MOL      -0.3841
     41 OW3         6.3704   14.4906   35.5853 O.3         1 MOL      -0.3864
     42 OW4         8.5513   13.6793   38.4040 O.3         1 MOL      -0.3865
     43 OW5         6.0057   15.1461   39.0998 O.3         1 MOL      -0.3405
     44 OW6         7.8602   17.9672   37.8312 O.3         1 MOL      -0.3924
     45 CY1         8.3405   15.7210   44.2853 C.3         1 MOL       0.0073
     46 CY2         7.8459   14.8598   43.0806 C.3         1 MOL       0.1257
     47 OY2         8.6615   14.9767   41.9229 O.3         1 MOL      -0.3835
     48 CY3         6.3660   15.1574   42.7196 C.3         1 MOL       0.1127
     49 OY3         6.0290   14.3239   41.6173 O.3         1 MOL      -0.3864
     50 CY4         5.3736   14.9459   43.9076 C.3         1 MOL       0.0953
     51 OY4         4.0294   15.4701   43.6950 O.3         1 MOL      -0.3424
     52 CY5         5.9151   15.6205   45.2220 C.3         1 MOL       0.0162
     53 CY6         7.4325   15.3329   45.4893 C.3         1 MOL       0.0002
     54 CY7         5.0641   15.2658   46.4835 C.3         1 MOL       0.0497
     55 OY7         5.6951   14.3091   47.3390 O.3         1 MOL      -0.3946
     56 H1         16.8133   15.0415   40.1473 H           1 MOL       0.0935
     57 H2         16.5600   15.8981   42.3817 H           1 MOL       0.0671
     58 H3         13.6826   14.8523   42.3880 H           1 MOL       0.0648
     59 H4         14.6277   17.7577   42.2711 H           1 MOL       0.0651
     60 H5         13.2777   16.0508   40.0861 H           1 MOL       0.0647
     61 H6         14.0885   18.1308   38.6542 H           1 MOL       0.0584
     62 H7         13.9195   19.0031   40.1834 H           1 MOL       0.0584
     63 H8         14.8971   14.2665   39.0465 H           1 MOL       0.2126
     64 H9         17.1251   13.9056   42.6219 H           1 MOL       0.2101
     65 H10        14.7453   14.8991   44.3633 H           1 MOL       0.2100
     66 H11        12.0595   18.8452   38.7022 H           1 MOL       0.2095
     67 H12        12.7410   19.2730   41.9280 H           1 MOL       0.0938
     68 H13        11.3611   20.1030   43.7591 H           1 MOL       0.0672
     69 H14        11.0424   17.1946   44.6649 H           1 MOL       0.0679
     70 H15         8.9348   19.0540   43.5110 H           1 MOL       0.0903
     71 H16        10.1494   16.7008   42.0230 H           1 MOL       0.0652
     72 H17         8.9917   17.6478   40.0517 H           1 MOL       0.0257
     73 H18         8.2652   18.9136   41.0516 H           1 MOL       0.0257
     74 H19         7.8053   17.2209   41.2835 H           1 MOL       0.0257
     75 H20        13.1587   20.0171   44.7098 H           1 MOL       0.2101
     76 H21        10.6517   18.2003   46.3825 H           1 MOL       0.2102
     77 H22         7.4290   17.4271   43.6090 H           1 MOL       0.2022
     78 H23         8.1463   17.5779   45.0627 H           1 MOL       0.2022
     79 H24         2.3509   16.0551   42.7545 H           1 MOL       0.0938
     80 H25         1.9328   13.7328   42.7496 H           1 MOL       0.0671
     81 H26         1.8840   13.0908   40.2686 H           1 MOL       0.0648
     82 H27         2.2595   15.0611   38.6876 H           1 MOL       0.0651
     83 H28         4.0958   16.6814   39.5159 H           1 MOL       0.0647
     84 H29         2.1671   17.7720   39.0058 H           1 MOL       0.0584
     85 H30         2.6283   18.3236   40.6153 H           1 MOL       0.0584
     86 H31         3.9499   12.9680   42.9676 H           1 MOL       0.2101
     87 H32         0.1450   13.9865   41.1900 H           1 MOL       0.2100
     88 H33         0.9735   17.3450   41.4853 H           1 MOL       0.2095
     89 H34         4.5513   15.1862   37.5877 H           1 MOL       0.0938
     90 H35         4.8298   12.8533   36.9110 H           1 MOL       0.0671
     91 H36         7.3178   12.8525   36.3166 H           1 MOL       0.0648
     92 H37         8.5679   15.0197   36.8700 H           1 MOL       0.0647
     93 H38         7.8526   15.9482   39.2039 H           1 MOL       0.0647
     94 H39         5.9192   17.4354   38.1069 H           1 MOL       0.0584
     95 H40         6.6460   16.8327   36.6128 H           1 MOL       0.0584
     96 H41         6.4599   11.5991   37.9630 H           1 MOL       0.2101
     97 H42         5.8850   13.8538   35.0196 H           1 MOL       0.2100
     98 H43         9.3093   14.1995   38.7501 H           1 MOL       0.2100
     99 H44         8.6341   17.6050   37.3472 H           1 MOL       0.2095
    100 H45         9.3578   15.4088   44.5275 H           1 MOL       0.0877
    101 H46         7.9171   13.8012   43.3617 H           1 MOL       0.0677
    102 H47         9.4919   14.4990   42.1321 H           1 MOL       0.2102
    103 H48         6.2834   16.1890   42.3936 H           1 MOL       0.0647
    104 H49         5.9748   13.4104   41.9659 H           1 MOL       0.2100
    105 H50         5.2968   13.8737   44.1002 H           1 MOL       0.0627
    106 H51         5.8150   16.7009   45.0869 H           1 MOL       0.0351
    107 H52         7.7593   15.8726   46.3758 H           1 MOL       0.0325
    108 H53         7.5681   14.2695   45.7101 H           1 MOL       0.0325
    109 H54         4.0901   14.8612   46.1879 H           1 MOL       0.0561
    110 H55         4.8844   16.1749   47.0762 H           1 MOL       0.0561
    111 H56         5.7938   13.5060   46.7844 H           1 MOL       0.2094
@<TRIPOS>BOND
     1     2     1   1
     2     1     7   1
     3    11     1   1
     4     3     2   1
     5     2     8   1
     6     4     3   1
     7     3     9   1
     8     4     5   1
     9    10     4   1
    10     5     6   1
    11     5    11   1
    12     6    12   1
    13    13    10   1
    14    14    13   1
    15    22    13   1
    16    15    14   1
    17    14    19   1
    18    16    15   1
    19    15    20   1
    20    16    17   1
    21    21    16   1
    22    17    18   1
    23    17    22   1
    24    45    21   1
    25    23    24   1
    26    23    32   1
    27    51    23   1
    28    24    25   1
    29    24    29   1
    30    25    26   1
    31    25    30   1
    32    27    26   1
    33    26    31   1
    34    27    28   1
    35    32    27   1
    36    28    33   1
    37    31    34   1
    38    34    35   1
    39    34    43   1
    40    35    36   1
    41    35    40   1
    42    36    37   1
    43    36    41   1
    44    38    37   1
    45    37    42   1
    46    38    39   1
    47    43    38   1
    48    39    44   1
    49    46    45   1
    50    45    53   1
    51    46    47   1
    52    48    46   1
    53    48    49   1
    54    50    48   1
    55    50    51   1
    56    50    52   1
    57    52    53   1
    58    52    54   1
    59    54    55   1
    60     1    56   1
    61     2    57   1
    62     3    58   1
    63     4    59   1
    64     5    60   1
    65     6    61   1
    66     6    62   1
    67     7    63   1
    68     8    64   1
    69     9    65   1
    70    12    66   1
    71    13    67   1
    72    14    68   1
    73    15    69   1
    74    16    70   1
    75    17    71   1
    76    18    72   1
    77    18    73   1
    78    18    74   1
    79    19    75   1
    80    20    76   1
    81    21    77   1
    82    21    78   1
    83    23    79   1
    84    24    80   1
    85    25    81   1
    86    26    82   1
    87    27    83   1
    88    28    84   1
    89    28    85   1
    90    29    86   1
    91    30    87   1
    92    33    88   1
    93    34    89   1
    94    35    90   1
    95    36    91   1
    96    37    92   1
    97    38    93   1
    98    39    94   1
    99    39    95   1
   100    40    96   1
   101    41    97   1
   102    42    98   1
   103    44    99   1
   104    45   100   1
   105    46   101   1
   106    47   102   1
   107    48   103   1
   108    49   104   1
   109    50   105   1
   110    52   106   1
   111    53   107   1
   112    53   108   1
   113    54   109   1
   114    54   110   1
   115    55   111   1
@<TRIPOS>SUBSTRUCTURE
     1  MOL      1

