@<TRIPOS>MOLECULE
1xd0_ligand_081
   111   115
SMALL
GAST_HUCK
****
This file was generated by PARSER (from files_GN.cpp)

@<TRIPOS>ATOM
      1 CR1        15.0086    5.5109   32.3926 C.3         1 MOL       0.1854
      2 CR2        14.2879    6.2400   33.5563 C.3         1 MOL       0.1339
      3 CR3        15.1839    6.3126   34.8237 C.3         1 MOL       0.1144
      4 CR4        16.6678    6.7108   34.5507 C.3         1 MOL       0.1184
      5 CR5        17.2623    6.0476   33.2525 C.3         1 MOL       0.1134
      6 CR6        17.9635    4.6699   33.4414 C.3         1 MOL       0.0730
      7 OR1        14.2658    5.6429   31.1845 O.3         1 MOL      -0.3649
      8 OR2        13.8833    7.5393   33.1335 O.3         1 MOL      -0.3841
      9 OR3        15.1704    5.0400   35.4721 O.3         1 MOL      -0.3864
     10 OR4        16.9312    8.1340   34.6701 O.3         1 MOL      -0.3401
     11 OR5        16.3179    6.0613   32.1528 O.3         1 MOL      -0.3407
     12 OR6        17.2470    3.7195   34.2150 O.3         1 MOL      -0.3924
     13 CV1        16.5700    9.0905   33.6470 C.3         1 MOL       0.1886
     14 CV2        17.6473   10.2076   33.5745 C.3         1 MOL       0.1370
     15 CV3        17.5989   11.1565   34.8081 C.3         1 MOL       0.1304
     16 CV4        16.1550   11.6986   35.0677 C.3         1 MOL       0.0334
     17 CV5        15.1398   10.5027   35.0679 C.3         1 MOL       0.1038
     18 CV6        13.6594   10.9606   35.0958 C.3         1 MOL      -0.0332
     19 OV2        18.9366    9.6050   33.4611 O.3         1 MOL      -0.3840
     20 OV3        18.5141   12.2311   34.5774 O.3         1 MOL      -0.3834
     21 NV4        16.0475   12.4391   36.3665 N.4         1 MOL       0.2370
     22 OV5        15.2715    9.6714   33.8947 O.3         1 MOL      -0.3401
     23 CQ1        12.6282   17.4713   37.5757 C.3         1 MOL       0.1883
     24 CQ2        13.1123   18.4733   38.6688 C.3         1 MOL       0.1341
     25 CQ3        12.5881   18.0841   40.0727 C.3         1 MOL       0.1144
     26 CQ4        11.0423   17.8893   40.0520 C.3         1 MOL       0.1184
     27 CQ5        10.6282   16.9218   38.8983 C.3         1 MOL       0.1134
     28 CQ6         9.0899   16.8248   38.7274 C.3         1 MOL       0.0730
     29 OQ2        14.5280   18.5954   38.6923 O.3         1 MOL      -0.3841
     30 OQ3        12.9127   19.1008   41.0236 O.3         1 MOL      -0.3864
     31 OQ4        10.4466   17.5241   41.3205 O.3         1 MOL      -0.3401
     32 OQ5        11.1875   17.3510   37.6332 O.3         1 MOL      -0.3405
     33 OQ6         8.4842   18.1030   38.5474 O.3         1 MOL      -0.3924
     34 CW1        11.0428   16.5283   42.1850 C.3         1 MOL       0.1884
     35 CW2         9.9413   15.8431   43.0342 C.3         1 MOL       0.1341
     36 CW3         9.3356   16.8484   44.0473 C.3         1 MOL       0.1141
     37 CW4        10.4534   17.5028   44.9050 C.3         1 MOL       0.1119
     38 CW5        11.5557   18.1164   43.9919 C.3         1 MOL       0.1130
     39 CW6        12.7580   18.6615   44.8060 C.3         1 MOL       0.0730
     40 OW2         8.9282   15.3060   42.1838 O.3         1 MOL      -0.3841
     41 OW3         8.3976   16.1685   44.8793 O.3         1 MOL      -0.3864
     42 OW4         9.8945   18.5125   45.7441 O.3         1 MOL      -0.3865
     43 OW5        12.0393   17.1178   43.0564 O.3         1 MOL      -0.3405
     44 OW6        12.3864   19.7158   45.6954 O.3         1 MOL      -0.3924
     45 CY1        16.6896   13.7747   36.5750 C.3         1 MOL       0.0073
     46 CY2        16.4631   14.2635   38.0395 C.3         1 MOL       0.1257
     47 OY2        16.8246   13.2300   38.9612 O.3         1 MOL      -0.3835
     48 CY3        15.0041   14.7366   38.3025 C.3         1 MOL       0.1127
     49 OY3        14.9061   15.2495   39.6320 O.3         1 MOL      -0.3864
     50 CY4        14.5350   15.8198   37.2832 C.3         1 MOL       0.0953
     51 OY4        13.1622   16.1234   37.6326 O.3         1 MOL      -0.3424
     52 CY5        14.7157   15.2888   35.8185 C.3         1 MOL       0.0162
     53 CY6        16.2072   14.8816   35.5865 C.3         1 MOL       0.0002
     54 CY7        14.2297   16.2677   34.7104 C.3         1 MOL       0.0497
     55 OY7        14.7304   17.5933   34.8782 O.3         1 MOL      -0.3946
     56 H1         15.0734    4.4408   32.6057 H           1 MOL       0.0935
     57 H2         13.3785    5.6778   33.7857 H           1 MOL       0.0671
     58 H3         14.7469    7.0329   35.5224 H           1 MOL       0.0648
     59 H4         17.2526    6.3192   35.3923 H           1 MOL       0.0651
     60 H5         18.0685    6.7075   32.9145 H           1 MOL       0.0647
     61 H6         18.9223    4.8276   33.9430 H           1 MOL       0.0584
     62 H7         18.1711    4.2332   32.4614 H           1 MOL       0.0584
     63 H8         14.7414    5.1051   30.5247 H           1 MOL       0.2126
     64 H9         13.2754    7.8529   33.8426 H           1 MOL       0.2101
     65 H10        14.3293    5.0023   35.9726 H           1 MOL       0.2100
     66 H11        16.5918    3.3223   33.6119 H           1 MOL       0.2095
     67 H12        16.5319    8.6065   32.6702 H           1 MOL       0.0938
     68 H13        17.4719   10.7990   32.6751 H           1 MOL       0.0672
     69 H14        17.9291   10.6119   35.6989 H           1 MOL       0.0679
     70 H15        15.8823   12.3545   34.2334 H           1 MOL       0.0903
     71 H16        15.3183    9.8912   35.9581 H           1 MOL       0.0652
     72 H17        13.0013   10.0946   35.0614 H           1 MOL       0.0257
     73 H18        13.4413   11.6028   34.2409 H           1 MOL       0.0257
     74 H19        13.4377   11.5139   36.0165 H           1 MOL       0.0257
     75 H20        19.5531   10.3411   33.2245 H           1 MOL       0.2101
     76 H21        19.3877   11.9096   34.9097 H           1 MOL       0.2102
     77 H22        16.4141   11.8118   37.0857 H           1 MOL       0.2022
     78 H23        15.0563   12.5705   36.5588 H           1 MOL       0.2022
     79 H24        12.8588   17.9074   36.6032 H           1 MOL       0.0938
     80 H25        12.7218   19.4617   38.4219 H           1 MOL       0.0671
     81 H26        13.0757   17.1562   40.3808 H           1 MOL       0.0648
     82 H27        10.6112   18.8682   39.8170 H           1 MOL       0.0651
     83 H28        10.9943   15.9168   39.1255 H           1 MOL       0.0647
     84 H29         8.6441   16.3542   39.6040 H           1 MOL       0.0584
     85 H30         8.8545   16.2096   37.8568 H           1 MOL       0.0584
     86 H31        14.6991   19.4659   39.1094 H           1 MOL       0.2101
     87 H32        13.8788   19.0273   41.1759 H           1 MOL       0.2100
     88 H33         9.0228   18.5545   37.8618 H           1 MOL       0.2095
     89 H34        11.5283   15.7505   41.5885 H           1 MOL       0.0938
     90 H35        10.3924   15.0108   43.5843 H           1 MOL       0.0671
     91 H36         8.7960   17.6285   43.5035 H           1 MOL       0.0648
     92 H37        10.9018   16.7364   45.5454 H           1 MOL       0.0647
     93 H38        11.1320   18.9571   43.4331 H           1 MOL       0.0647
     94 H39        13.5179   19.0496   44.1244 H           1 MOL       0.0584
     95 H40        13.2033   17.8559   45.3935 H           1 MOL       0.0584
     96 H41         8.3575   14.7603   42.7682 H           1 MOL       0.2101
     97 H42         8.0506   16.8518   45.4942 H           1 MOL       0.2100
     98 H43         9.1554   18.0723   46.2045 H           1 MOL       0.2100
     99 H44        12.3476   20.5315   45.1531 H           1 MOL       0.2095
    100 H45        17.7701   13.6594   36.4598 H           1 MOL       0.0877
    101 H46        17.1343   15.1110   38.2252 H           1 MOL       0.0677
    102 H47        16.8362   13.6553   39.8450 H           1 MOL       0.2102
    103 H48        14.3344   13.8744   38.2411 H           1 MOL       0.0647
    104 H49        15.4995   16.0318   39.6582 H           1 MOL       0.2100
    105 H50        15.1784   16.6945   37.4045 H           1 MOL       0.0627
    106 H51        14.1023   14.3889   35.7116 H           1 MOL       0.0351
    107 H52        16.3556   14.5458   34.5603 H           1 MOL       0.0325
    108 H53        16.8500   15.7602   35.7175 H           1 MOL       0.0325
    109 H54        13.1378   16.3015   34.7076 H           1 MOL       0.0561
    110 H55        14.5391   15.8999   33.7277 H           1 MOL       0.0561
    111 H56        15.6914   17.5318   34.7229 H           1 MOL       0.2094
@<TRIPOS>BOND
     1     2     1   1
     2     1     7   1
     3    11     1   1
     4     3     2   1
     5     2     8   1
     6     4     3   1
     7     3     9   1
     8     4     5   1
     9    10     4   1
    10     5     6   1
    11     5    11   1
    12     6    12   1
    13    13    10   1
    14    14    13   1
    15    22    13   1
    16    15    14   1
    17    14    19   1
    18    16    15   1
    19    15    20   1
    20    16    17   1
    21    21    16   1
    22    17    18   1
    23    17    22   1
    24    45    21   1
    25    23    24   1
    26    23    32   1
    27    51    23   1
    28    24    25   1
    29    24    29   1
    30    25    26   1
    31    25    30   1
    32    27    26   1
    33    26    31   1
    34    27    28   1
    35    32    27   1
    36    28    33   1
    37    31    34   1
    38    34    35   1
    39    34    43   1
    40    35    36   1
    41    35    40   1
    42    36    37   1
    43    36    41   1
    44    38    37   1
    45    37    42   1
    46    38    39   1
    47    43    38   1
    48    39    44   1
    49    46    45   1
    50    45    53   1
    51    46    47   1
    52    48    46   1
    53    48    49   1
    54    50    48   1
    55    50    51   1
    56    50    52   1
    57    52    53   1
    58    52    54   1
    59    54    55   1
    60     1    56   1
    61     2    57   1
    62     3    58   1
    63     4    59   1
    64     5    60   1
    65     6    61   1
    66     6    62   1
    67     7    63   1
    68     8    64   1
    69     9    65   1
    70    12    66   1
    71    13    67   1
    72    14    68   1
    73    15    69   1
    74    16    70   1
    75    17    71   1
    76    18    72   1
    77    18    73   1
    78    18    74   1
    79    19    75   1
    80    20    76   1
    81    21    77   1
    82    21    78   1
    83    23    79   1
    84    24    80   1
    85    25    81   1
    86    26    82   1
    87    27    83   1
    88    28    84   1
    89    28    85   1
    90    29    86   1
    91    30    87   1
    92    33    88   1
    93    34    89   1
    94    35    90   1
    95    36    91   1
    96    37    92   1
    97    38    93   1
    98    39    94   1
    99    39    95   1
   100    40    96   1
   101    41    97   1
   102    42    98   1
   103    44    99   1
   104    45   100   1
   105    46   101   1
   106    47   102   1
   107    48   103   1
   108    49   104   1
   109    50   105   1
   110    52   106   1
   111    53   107   1
   112    53   108   1
   113    54   109   1
   114    54   110   1
   115    55   111   1
@<TRIPOS>SUBSTRUCTURE
     1  MOL      1

