@<TRIPOS>MOLECULE
1xd0_ligand_066
   111   115
SMALL
GAST_HUCK
****
This file was generated by PARSER (from files_GN.cpp)

@<TRIPOS>ATOM
      1 CR1        15.8339   15.4001   40.9570 C.3         1 MOL       0.1854
      2 CR2        14.7023   14.8026   40.0751 C.3         1 MOL       0.1339
      3 CR3        13.3223   15.4278   40.4497 C.3         1 MOL       0.1144
      4 CR4        13.0548   15.3945   41.9867 C.3         1 MOL       0.1184
      5 CR5        14.2955   15.9260   42.7811 C.3         1 MOL       0.1134
      6 CR6        14.1550   15.8064   44.3311 C.3         1 MOL       0.0730
      7 OR1        16.0771   16.7687   40.6008 O.3         1 MOL      -0.3649
      8 OR2        14.9777   14.9929   38.6811 O.3         1 MOL      -0.3841
      9 OR3        12.2902   14.7365   39.7309 O.3         1 MOL      -0.3864
     10 OR4        11.7797   15.9729   42.3797 O.3         1 MOL      -0.3401
     11 OR5        15.4924   15.2365   42.3535 O.3         1 MOL      -0.3407
     12 OR6        13.0412   15.0194   44.7820 O.3         1 MOL      -0.3924
     13 CV1        11.5063   17.3910   42.2081 C.3         1 MOL       0.1886
     14 CV2        10.1816   17.7894   42.9120 C.3         1 MOL       0.1370
     15 CV3         8.9335   17.2325   42.1722 C.3         1 MOL       0.1304
     16 CV4         8.9897   17.4577   40.6244 C.3         1 MOL       0.0334
     17 CV5        10.4125   17.1820   40.0432 C.3         1 MOL       0.1038
     18 CV6        10.5846   17.7079   38.5982 C.3         1 MOL      -0.0332
     19 OV2        10.1828   17.3549   44.2697 O.3         1 MOL      -0.3840
     20 OV3         7.7459   17.8285   42.7048 O.3         1 MOL      -0.3834
     21 NV4         7.9018   16.7833   39.8374 N.4         1 MOL       0.2370
     22 OV5        11.4468   17.8108   40.8305 O.3         1 MOL      -0.3401
     23 CQ1         3.3205   16.0919   41.1376 C.3         1 MOL       0.1883
     24 CQ2         2.2414   15.9923   42.2483 C.3         1 MOL       0.1341
     25 CQ3         0.8919   15.5096   41.6589 C.3         1 MOL       0.1144
     26 CQ4         0.4426   16.4505   40.5061 C.3         1 MOL       0.1184
     27 CQ5         1.5844   16.5361   39.4431 C.3         1 MOL       0.1134
     28 CQ6         1.2665   17.5249   38.2957 C.3         1 MOL       0.0730
     29 OQ2         2.6416   15.1273   43.3057 O.3         1 MOL      -0.3841
     30 OQ3        -0.0932   15.4747   42.6901 O.3         1 MOL      -0.3864
     31 OQ4        -0.7776   15.9182   39.9401 O.3         1 MOL      -0.3401
     32 OQ5         2.8225   16.9434   40.0748 O.3         1 MOL      -0.3405
     33 OQ6         2.2966   17.5615   37.3164 O.3         1 MOL      -0.3924
     34 CW1        -1.9194   16.7913   39.7702 C.3         1 MOL       0.1884
     35 CW2        -2.9254   16.7689   40.9590 C.3         1 MOL       0.1341
     36 CW3        -3.7058   15.4245   41.0326 C.3         1 MOL       0.1141
     37 CW4        -4.2832   15.0090   39.6499 C.3         1 MOL       0.1119
     38 CW5        -3.1990   15.1132   38.5371 C.3         1 MOL       0.1130
     39 CW6        -3.7782   14.8766   37.1216 C.3         1 MOL       0.0730
     40 OW2        -2.2709   16.9968   42.2077 O.3         1 MOL      -0.3841
     41 OW3        -4.7874   15.5149   41.9726 O.3         1 MOL      -0.3864
     42 OW4        -4.7833   13.6724   39.7194 O.3         1 MOL      -0.3865
     43 OW5        -2.5935   16.4241   38.5523 O.3         1 MOL      -0.3405
     44 OW6        -2.7504   14.9270   36.1348 O.3         1 MOL      -0.3924
     45 CY1         7.8739   15.3168   39.4990 C.3         1 MOL       0.0073
     46 CY2         6.8292   15.0453   38.3722 C.3         1 MOL       0.1257
     47 OY2         7.0992   15.8296   37.2128 O.3         1 MOL      -0.3835
     48 CY3         5.3800   15.2864   38.8751 C.3         1 MOL       0.1127
     49 OY3         4.4612   14.9516   37.8342 O.3         1 MOL      -0.3864
     50 CY4         5.0295   14.4921   40.1746 C.3         1 MOL       0.0953
     51 OY4         3.6955   14.7724   40.6685 O.3         1 MOL      -0.3424
     52 CY5         6.1391   14.6229   41.2816 C.3         1 MOL       0.0162
     53 CY6         7.5546   14.3472   40.6729 C.3         1 MOL       0.0002
     54 CY7         5.9392   13.6936   42.5149 C.3         1 MOL       0.0497
     55 OY7         4.5708   13.3680   42.7446 O.3         1 MOL      -0.3946
     56 H1         16.7469   14.8297   40.7600 H           1 MOL       0.0935
     57 H2         14.6537   13.7197   40.2513 H           1 MOL       0.0671
     58 H3         13.3221   16.4669   40.1051 H           1 MOL       0.0648
     59 H4         12.9493   14.3359   42.2345 H           1 MOL       0.0651
     60 H5         14.4336   16.9832   42.5573 H           1 MOL       0.0647
     61 H6         14.0518   16.8088   44.7770 H           1 MOL       0.0584
     62 H7         15.0652   15.3559   44.7573 H           1 MOL       0.0584
     63 H8         16.9121   17.0104   41.0511 H           1 MOL       0.2126
     64 H9         15.0453   15.9654   38.5667 H           1 MOL       0.2101
     65 H10        12.4848   13.7789   39.8181 H           1 MOL       0.2100
     66 H11        13.0023   15.1874   45.7550 H           1 MOL       0.2095
     67 H12        12.2854   17.9845   42.6919 H           1 MOL       0.0938
     68 H13        10.1162   18.8780   42.9223 H           1 MOL       0.0672
     69 H14         8.8791   16.1714   42.3824 H           1 MOL       0.0679
     70 H15         8.8104   18.5303   40.4834 H           1 MOL       0.0903
     71 H16        10.5775   16.1068   40.0340 H           1 MOL       0.0652
     72 H17        11.6032   17.5192   38.2485 H           1 MOL       0.0257
     73 H18        10.3985   18.7849   38.5754 H           1 MOL       0.0257
     74 H19         9.8892   17.2151   37.9144 H           1 MOL       0.0257
     75 H20        10.2666   16.3784   44.2381 H           1 MOL       0.2101
     76 H21         7.9571   18.7841   42.7968 H           1 MOL       0.2102
     77 H22         7.9213   17.2360   38.9183 H           1 MOL       0.2022
     78 H23         7.0165   17.0274   40.2867 H           1 MOL       0.2022
     79 H24         4.1907   16.5882   41.5767 H           1 MOL       0.0938
     80 H25         2.1019   16.9876   42.6738 H           1 MOL       0.0671
     81 H26         1.0108   14.4890   41.2796 H           1 MOL       0.0648
     82 H27         0.2851   17.4477   40.9350 H           1 MOL       0.0651
     83 H28         1.7199   15.5469   38.9960 H           1 MOL       0.0647
     84 H29         1.1215   18.5319   38.6870 H           1 MOL       0.0584
     85 H30         0.3557   17.2116   37.7874 H           1 MOL       0.0584
     86 H31         3.4175   15.5625   43.7178 H           1 MOL       0.2101
     87 H32        -0.5806   14.6366   42.5455 H           1 MOL       0.2100
     88 H33         2.9108   18.2688   37.6030 H           1 MOL       0.2095
     89 H34        -1.5936   17.8227   39.6285 H           1 MOL       0.0938
     90 H35        -3.6493   17.5782   40.8128 H           1 MOL       0.0671
     91 H36        -3.0218   14.6444   41.3836 H           1 MOL       0.0648
     92 H37        -5.1155   15.6744   39.4014 H           1 MOL       0.0647
     93 H38        -2.4351   14.3496   38.7129 H           1 MOL       0.0647
     94 H39        -4.5294   15.6338   36.8854 H           1 MOL       0.0584
     95 H40        -4.2466   13.8924   37.0657 H           1 MOL       0.0584
     96 H41        -1.5595   17.6411   42.0115 H           1 MOL       0.2101
     97 H42        -4.5856   16.2862   42.5435 H           1 MOL       0.2100
     98 H43        -5.5299   13.7029   40.3551 H           1 MOL       0.2100
     99 H44        -2.4695   15.8658   36.0956 H           1 MOL       0.2095
    100 H45         8.8484   15.0358   39.0888 H           1 MOL       0.0877
    101 H46         6.9188   14.0024   38.0602 H           1 MOL       0.0677
    102 H47         6.5309   16.6239   37.2883 H           1 MOL       0.2102
    103 H48         5.2765   16.3566   39.0649 H           1 MOL       0.0647
    104 H49         4.5794   13.9923   37.6685 H           1 MOL       0.2100
    105 H50         5.0083   13.4361   39.8944 H           1 MOL       0.0627
    106 H51         6.1334   15.6460   41.6621 H           1 MOL       0.0351
    107 H52         8.3416   14.4066   41.4298 H           1 MOL       0.0325
    108 H53         7.5884   13.3147   40.3006 H           1 MOL       0.0325
    109 H54         6.3064   14.2018   43.4199 H           1 MOL       0.0561
    110 H55         6.5058   12.7622   42.3984 H           1 MOL       0.0561
    111 H56         4.5885   12.8440   43.5760 H           1 MOL       0.2094
@<TRIPOS>BOND
     1     2     1   1
     2     1     7   1
     3    11     1   1
     4     3     2   1
     5     2     8   1
     6     4     3   1
     7     3     9   1
     8     4     5   1
     9    10     4   1
    10     5     6   1
    11     5    11   1
    12     6    12   1
    13    13    10   1
    14    14    13   1
    15    22    13   1
    16    15    14   1
    17    14    19   1
    18    16    15   1
    19    15    20   1
    20    16    17   1
    21    21    16   1
    22    17    18   1
    23    17    22   1
    24    45    21   1
    25    23    24   1
    26    23    32   1
    27    51    23   1
    28    24    25   1
    29    24    29   1
    30    25    26   1
    31    25    30   1
    32    27    26   1
    33    26    31   1
    34    27    28   1
    35    32    27   1
    36    28    33   1
    37    31    34   1
    38    34    35   1
    39    34    43   1
    40    35    36   1
    41    35    40   1
    42    36    37   1
    43    36    41   1
    44    38    37   1
    45    37    42   1
    46    38    39   1
    47    43    38   1
    48    39    44   1
    49    46    45   1
    50    45    53   1
    51    46    47   1
    52    48    46   1
    53    48    49   1
    54    50    48   1
    55    50    51   1
    56    50    52   1
    57    52    53   1
    58    52    54   1
    59    54    55   1
    60     1    56   1
    61     2    57   1
    62     3    58   1
    63     4    59   1
    64     5    60   1
    65     6    61   1
    66     6    62   1
    67     7    63   1
    68     8    64   1
    69     9    65   1
    70    12    66   1
    71    13    67   1
    72    14    68   1
    73    15    69   1
    74    16    70   1
    75    17    71   1
    76    18    72   1
    77    18    73   1
    78    18    74   1
    79    19    75   1
    80    20    76   1
    81    21    77   1
    82    21    78   1
    83    23    79   1
    84    24    80   1
    85    25    81   1
    86    26    82   1
    87    27    83   1
    88    28    84   1
    89    28    85   1
    90    29    86   1
    91    30    87   1
    92    33    88   1
    93    34    89   1
    94    35    90   1
    95    36    91   1
    96    37    92   1
    97    38    93   1
    98    39    94   1
    99    39    95   1
   100    40    96   1
   101    41    97   1
   102    42    98   1
   103    44    99   1
   104    45   100   1
   105    46   101   1
   106    47   102   1
   107    48   103   1
   108    49   104   1
   109    50   105   1
   110    52   106   1
   111    53   107   1
   112    53   108   1
   113    54   109   1
   114    54   110   1
   115    55   111   1
@<TRIPOS>SUBSTRUCTURE
     1  MOL      1

