@<TRIPOS>MOLECULE
1xd0_ligand_004
   111   115
SMALL
GAST_HUCK
****
This file was generated by PARSER (from files_GN.cpp)

@<TRIPOS>ATOM
      1 CR1         1.7352   16.4065   39.4112 C.3         1 MOL       0.1854
      2 CR2         1.3740   15.2112   40.3273 C.3         1 MOL       0.1339
      3 CR3         2.1116   15.3108   41.6945 C.3         1 MOL       0.1144
      4 CR4         3.6426   15.5542   41.5281 C.3         1 MOL       0.1184
      5 CR5         3.8519   16.7772   40.5763 C.3         1 MOL       0.1134
      6 CR6         5.3259   17.0698   40.1948 C.3         1 MOL       0.0730
      7 OR1         1.1221   17.6220   39.8416 O.3         1 MOL      -0.3649
      8 OR2        -0.0460   15.1691   40.5013 O.3         1 MOL      -0.3841
      9 OR3         1.8730   14.1159   42.4286 O.3         1 MOL      -0.3864
     10 OR4         4.2424   15.7844   42.8313 O.3         1 MOL      -0.3401
     11 OR5         3.1598   16.5702   39.3254 O.3         1 MOL      -0.3407
     12 OR6         6.0844   15.8828   39.9755 O.3         1 MOL      -0.3924
     13 CV1         4.8839   14.6485   43.4851 C.3         1 MOL       0.1886
     14 CV2         5.1595   14.8821   45.0010 C.3         1 MOL       0.1370
     15 CV3         6.3036   15.9136   45.2325 C.3         1 MOL       0.1304
     16 CV4         7.5768   15.6124   44.3770 C.3         1 MOL       0.0334
     17 CV5         7.1436   15.3256   42.9046 C.3         1 MOL       0.1038
     18 CV6         8.2756   14.8693   41.9553 C.3         1 MOL      -0.0332
     19 OV2         3.9614   15.2796   45.6771 O.3         1 MOL      -0.3840
     20 OV3         6.6390   15.9153   46.6186 O.3         1 MOL      -0.3834
     21 NV4         8.5140   16.7799   44.4025 N.4         1 MOL       0.2370
     22 OV5         6.1227   14.3108   42.8330 O.3         1 MOL      -0.3401
     23 CQ1        13.5127   18.0547   41.4150 C.3         1 MOL       0.1883
     24 CQ2        13.3126   18.4108   39.9149 C.3         1 MOL       0.1341
     25 CQ3        13.5856   17.1884   38.9909 C.3         1 MOL       0.1144
     26 CQ4        14.9429   16.4868   39.3262 C.3         1 MOL       0.1184
     27 CQ5        15.0115   16.2101   40.8588 C.3         1 MOL       0.1134
     28 CQ6        16.3322   15.5500   41.3376 C.3         1 MOL       0.0730
     29 OQ2        11.9864   18.9084   39.7102 O.3         1 MOL      -0.3841
     30 OQ3        13.5681   17.6450   37.6383 O.3         1 MOL      -0.3864
     31 OQ4        15.2893   15.2419   38.6686 O.3         1 MOL      -0.3401
     32 OQ5        14.7900   17.4181   41.6198 O.3         1 MOL      -0.3405
     33 OQ6        17.4478   15.8572   40.5078 O.3         1 MOL      -0.3924
     34 CW1        14.5657   14.6645   37.5655 C.3         1 MOL       0.1884
     35 CW2        15.2220   13.3149   37.1661 C.3         1 MOL       0.1341
     36 CW3        16.5992   13.5497   36.4816 C.3         1 MOL       0.1141
     37 CW4        16.4833   14.5746   35.3198 C.3         1 MOL       0.1119
     38 CW5        15.7653   15.8656   35.8068 C.3         1 MOL       0.1130
     39 CW6        15.4598   16.8673   34.6655 C.3         1 MOL       0.0730
     40 OW2        15.3672   12.4862   38.3212 O.3         1 MOL      -0.3841
     41 OW3        17.1251   12.3105   36.0046 O.3         1 MOL      -0.3864
     42 OW4        17.7853   14.8910   34.8254 O.3         1 MOL      -0.3865
     43 OW5        14.5030   15.5401   36.4259 O.3         1 MOL      -0.3405
     44 OW6        14.2578   16.5239   33.9757 O.3         1 MOL      -0.3924
     45 CY1         9.7518   16.7964   45.2426 C.3         1 MOL       0.0073
     46 CY2        10.4788   18.1647   45.0606 C.3         1 MOL       0.1257
     47 OY2         9.6115   19.2552   45.3731 O.3         1 MOL      -0.3835
     48 CY3        11.1061   18.3212   43.6430 C.3         1 MOL       0.1127
     49 OY3        11.7670   19.5805   43.5650 O.3         1 MOL      -0.3864
     50 CY4        12.0939   17.1561   43.2882 C.3         1 MOL       0.0953
     51 OY4        12.4234   17.2188   41.8762 O.3         1 MOL      -0.3424
     52 CY5        11.4443   15.7521   43.5535 C.3         1 MOL       0.0162
     53 CY6        10.7852   15.6630   44.9663 C.3         1 MOL       0.0002
     54 CY7        12.4438   14.5720   43.3247 C.3         1 MOL       0.0497
     55 OY7        12.4167   14.1386   41.9695 O.3         1 MOL      -0.3946
     56 H1          1.3682   16.1958   38.4058 H           1 MOL       0.0935
     57 H2          1.6808   14.2856   39.8245 H           1 MOL       0.0671
     58 H3          1.6790   16.1380   42.2670 H           1 MOL       0.0648
     59 H4          4.0774   14.6753   41.0411 H           1 MOL       0.0651
     60 H5          3.4657   17.6802   41.0601 H           1 MOL       0.0647
     61 H6          5.8009   17.6703   40.9702 H           1 MOL       0.0584
     62 H7          5.3652   17.6572   39.2712 H           1 MOL       0.0584
     63 H8          0.1574   17.4819   39.7371 H           1 MOL       0.2126
     64 H9         -0.2487   14.3272   40.9646 H           1 MOL       0.2101
     65 H10         2.0987   13.3844   41.8148 H           1 MOL       0.2100
     66 H11         5.6779   15.4617   39.1902 H           1 MOL       0.2095
     67 H12         4.2367   13.7655   43.4207 H           1 MOL       0.0938
     68 H13         5.4663   13.9247   45.4420 H           1 MOL       0.0672
     69 H14         5.9222   16.9061   44.9749 H           1 MOL       0.0679
     70 H15         8.0466   14.7115   44.7724 H           1 MOL       0.0903
     71 H16         6.7557   16.2547   42.5012 H           1 MOL       0.0652
     72 H17         7.8653   14.3843   41.0641 H           1 MOL       0.0257
     73 H18         8.9368   14.1568   42.4513 H           1 MOL       0.0257
     74 H19         8.8476   15.7324   41.6140 H           1 MOL       0.0257
     75 H20         3.3329   15.5038   44.9618 H           1 MOL       0.2101
     76 H21         5.8418   16.2535   47.0836 H           1 MOL       0.2102
     77 H22         7.9672   17.5944   44.7024 H           1 MOL       0.2022
     78 H23         8.8138   16.9584   43.4422 H           1 MOL       0.2022
     79 H24        13.5428   18.9952   41.9669 H           1 MOL       0.0938
     80 H25        14.0109   19.2124   39.6514 H           1 MOL       0.0671
     81 H26        12.7678   16.4739   39.1178 H           1 MOL       0.0648
     82 H27        15.7429   17.1895   39.0743 H           1 MOL       0.0651
     83 H28        14.2228   15.5007   41.0959 H           1 MOL       0.0647
     84 H29        16.2190   14.4616   41.3423 H           1 MOL       0.0584
     85 H30        16.5546   15.8622   42.3598 H           1 MOL       0.0584
     86 H31        11.9366   19.2082   38.7787 H           1 MOL       0.2101
     87 H32        14.3149   18.2754   37.5607 H           1 MOL       0.2100
     88 H33        17.7363   16.7549   40.7721 H           1 MOL       0.2095
     89 H34        13.5426   14.4452   37.8863 H           1 MOL       0.0938
     90 H35        14.5542   12.8014   36.4651 H           1 MOL       0.0671
     91 H36        17.3027   13.9334   37.2282 H           1 MOL       0.0648
     92 H37        15.9089   14.1232   34.5064 H           1 MOL       0.0647
     93 H38        16.4060   16.3808   36.5286 H           1 MOL       0.0647
     94 H39        16.2814   16.8975   33.9435 H           1 MOL       0.0584
     95 H40        15.3384   17.8704   35.0871 H           1 MOL       0.0584
     96 H41        15.2637   11.5636   38.0049 H           1 MOL       0.2101
     97 H42        16.4817   11.9917   35.3366 H           1 MOL       0.2100
     98 H43        18.1004   14.0790   34.3758 H           1 MOL       0.2100
     99 H44        14.1443   17.2247   33.2963 H           1 MOL       0.2095
    100 H45         9.4457   16.7157   46.2871 H           1 MOL       0.0877
    101 H46        11.2863   18.2270   45.7931 H           1 MOL       0.0677
    102 H47         9.1880   19.5294   44.5294 H           1 MOL       0.2102
    103 H48        10.3120   18.3316   42.8917 H           1 MOL       0.0647
    104 H49        11.0907   20.2063   43.2352 H           1 MOL       0.2100
    105 H50        12.9989   17.2495   43.9050 H           1 MOL       0.0627
    106 H51        10.6480   15.6384   42.8400 H           1 MOL       0.0351
    107 H52        10.2971   14.6892   45.0777 H           1 MOL       0.0325
    108 H53        11.5739   15.7092   45.7299 H           1 MOL       0.0325
    109 H54        12.1823   13.6995   43.9310 H           1 MOL       0.0561
    110 H55        13.4687   14.8589   43.5838 H           1 MOL       0.0561
    111 H56        11.5030   13.8148   41.8057 H           1 MOL       0.2094
@<TRIPOS>BOND
     1     2     1   1
     2     1     7   1
     3    11     1   1
     4     3     2   1
     5     2     8   1
     6     4     3   1
     7     3     9   1
     8     4     5   1
     9    10     4   1
    10     5     6   1
    11     5    11   1
    12     6    12   1
    13    13    10   1
    14    14    13   1
    15    22    13   1
    16    15    14   1
    17    14    19   1
    18    16    15   1
    19    15    20   1
    20    16    17   1
    21    21    16   1
    22    17    18   1
    23    17    22   1
    24    45    21   1
    25    23    24   1
    26    23    32   1
    27    51    23   1
    28    24    25   1
    29    24    29   1
    30    25    26   1
    31    25    30   1
    32    27    26   1
    33    26    31   1
    34    27    28   1
    35    32    27   1
    36    28    33   1
    37    31    34   1
    38    34    35   1
    39    34    43   1
    40    35    36   1
    41    35    40   1
    42    36    37   1
    43    36    41   1
    44    38    37   1
    45    37    42   1
    46    38    39   1
    47    43    38   1
    48    39    44   1
    49    46    45   1
    50    45    53   1
    51    46    47   1
    52    48    46   1
    53    48    49   1
    54    50    48   1
    55    50    51   1
    56    50    52   1
    57    52    53   1
    58    52    54   1
    59    54    55   1
    60     1    56   1
    61     2    57   1
    62     3    58   1
    63     4    59   1
    64     5    60   1
    65     6    61   1
    66     6    62   1
    67     7    63   1
    68     8    64   1
    69     9    65   1
    70    12    66   1
    71    13    67   1
    72    14    68   1
    73    15    69   1
    74    16    70   1
    75    17    71   1
    76    18    72   1
    77    18    73   1
    78    18    74   1
    79    19    75   1
    80    20    76   1
    81    21    77   1
    82    21    78   1
    83    23    79   1
    84    24    80   1
    85    25    81   1
    86    26    82   1
    87    27    83   1
    88    28    84   1
    89    28    85   1
    90    29    86   1
    91    30    87   1
    92    33    88   1
    93    34    89   1
    94    35    90   1
    95    36    91   1
    96    37    92   1
    97    38    93   1
    98    39    94   1
    99    39    95   1
   100    40    96   1
   101    41    97   1
   102    42    98   1
   103    44    99   1
   104    45   100   1
   105    46   101   1
   106    47   102   1
   107    48   103   1
   108    49   104   1
   109    50   105   1
   110    52   106   1
   111    53   107   1
   112    53   108   1
   113    54   109   1
   114    54   110   1
   115    55   111   1
@<TRIPOS>SUBSTRUCTURE
     1  MOL      1

