@<TRIPOS>MOLECULE
1xd0_ligand_006
   111   115
SMALL
GAST_HUCK
****
This file was generated by PARSER (from files_GN.cpp)

@<TRIPOS>ATOM
      1 CR1        15.6394   15.8995   40.7479 C.3         1 MOL       0.1854
      2 CR2        14.4379   15.5521   39.8345 C.3         1 MOL       0.1339
      3 CR3        13.1484   16.2092   40.3918 C.3         1 MOL       0.1144
      4 CR4        12.9309   15.8418   41.8875 C.3         1 MOL       0.1184
      5 CR5        14.2230   15.9849   42.7620 C.3         1 MOL       0.1134
      6 CR6        14.1248   15.2312   44.1180 C.3         1 MOL       0.0730
      7 OR1        15.9245   17.2983   40.7134 O.3         1 MOL      -0.3649
      8 OR2        14.6703   15.9958   38.4983 O.3         1 MOL      -0.3841
      9 OR3        12.0160   15.7888   39.6320 O.3         1 MOL      -0.3864
     10 OR4        11.7964   16.5214   42.4623 O.3         1 MOL      -0.3401
     11 OR5        15.3876   15.4457   42.0919 O.3         1 MOL      -0.3407
     12 OR6        12.9173   15.4971   44.8212 O.3         1 MOL      -0.3924
     13 CV1        11.6112   17.9632   42.4488 C.3         1 MOL       0.1886
     14 CV2        11.3813   18.5103   43.8824 C.3         1 MOL       0.1370
     15 CV3        10.1752   17.7646   44.5228 C.3         1 MOL       0.1304
     16 CV4         8.9071   17.7990   43.6155 C.3         1 MOL       0.0334
     17 CV5         9.2125   17.6797   42.0817 C.3         1 MOL       0.1038
     18 CV6         8.0917   18.2046   41.1715 C.3         1 MOL      -0.0332
     19 OV2        12.5768   18.3671   44.6392 O.3         1 MOL      -0.3840
     20 OV3         9.9066   18.3607   45.7914 O.3         1 MOL      -0.3834
     21 NV4         7.7841   16.9404   44.1174 N.4         1 MOL       0.2370
     22 OV5        10.4477   18.3155   41.6807 O.3         1 MOL      -0.3401
     23 CQ1         3.2980   14.9469   41.5132 C.3         1 MOL       0.1883
     24 CQ2         1.7671   15.2164   41.5902 C.3         1 MOL       0.1341
     25 CQ3         1.1657   15.3381   40.1644 C.3         1 MOL       0.1144
     26 CQ4         1.5017   14.0966   39.2908 C.3         1 MOL       0.1184
     27 CQ5         3.0175   13.7339   39.3732 C.3         1 MOL       0.1134
     28 CQ6         3.8994   14.5701   38.3943 C.3         1 MOL       0.0730
     29 OQ2         1.1744   14.1356   42.3187 O.3         1 MOL      -0.3841
     30 OQ3         1.6276   16.5436   39.5534 O.3         1 MOL      -0.3864
     31 OQ4         0.7008   12.9795   39.7616 O.3         1 MOL      -0.3401
     32 OQ5         3.5261   13.7479   40.7408 O.3         1 MOL      -0.3405
     33 OQ6         5.2093   14.0339   38.2897 O.3         1 MOL      -0.3924
     34 CW1        -0.3375   12.4038   38.9309 C.3         1 MOL       0.1884
     35 CW2        -1.3445   13.4449   38.3509 C.3         1 MOL       0.1341
     36 CW3        -2.5611   12.7359   37.6916 C.3         1 MOL       0.1141
     37 CW4        -3.2433   11.7517   38.6680 C.3         1 MOL       0.1119
     38 CW5        -2.2157   10.7763   39.3367 C.3         1 MOL       0.1130
     39 CW6        -1.9277    9.4862   38.5279 C.3         1 MOL       0.0730
     40 OW2        -1.7807   14.3383   39.3749 O.3         1 MOL      -0.3841
     41 OW3        -2.1342   12.0605   36.5064 O.3         1 MOL      -0.3864
     42 OW4        -3.9507   12.4727   39.6796 O.3         1 MOL      -0.3865
     43 OW5        -1.0136   11.4608   39.7931 O.3         1 MOL      -0.3405
     44 OW6        -0.7507    9.5338   37.7260 O.3         1 MOL      -0.3924
     45 CY1         7.8353   15.4447   44.3080 C.3         1 MOL       0.0073
     46 CY2         7.6390   14.5378   43.0575 C.3         1 MOL       0.1257
     47 OY2         8.7480   14.6215   42.1527 O.3         1 MOL      -0.3835
     48 CY3         6.2744   14.8008   42.3724 C.3         1 MOL       0.1127
     49 OY3         6.2058   13.9921   41.2049 O.3         1 MOL      -0.3864
     50 CY4         5.0834   14.4685   43.3292 C.3         1 MOL       0.0953
     51 OY4         3.7572   14.8464   42.8746 O.3         1 MOL      -0.3424
     52 CY5         5.2610   15.1292   44.7423 C.3         1 MOL       0.0162
     53 CY6         6.7212   15.0309   45.3190 C.3         1 MOL       0.0002
     54 CY7         4.2341   14.5517   45.7615 C.3         1 MOL       0.0497
     55 OY7         4.1977   15.2629   46.9976 O.3         1 MOL      -0.3946
     56 H1         16.5208   15.3715   40.3781 H           1 MOL       0.0935
     57 H2         14.3072   14.4652   39.8122 H           1 MOL       0.0671
     58 H3         13.2393   17.2907   40.2803 H           1 MOL       0.0648
     59 H4         12.6656   14.7805   41.9040 H           1 MOL       0.0651
     60 H5         14.4007   17.0432   42.9677 H           1 MOL       0.0647
     61 H6         14.9632   15.5208   44.7575 H           1 MOL       0.0584
     62 H7         14.1812   14.1531   43.9499 H           1 MOL       0.0584
     63 H8         16.8402   17.3924   41.0492 H           1 MOL       0.2126
     64 H9         15.4118   15.4460   38.1677 H           1 MOL       0.2101
     65 H10        12.1353   16.1865   38.7445 H           1 MOL       0.2100
     66 H11        13.1571   15.5626   45.7706 H           1 MOL       0.2095
     67 H12        12.4699   18.4858   42.0130 H           1 MOL       0.0938
     68 H13        11.1504   19.5776   43.8242 H           1 MOL       0.0672
     69 H14        10.4943   16.7379   44.6995 H           1 MOL       0.0679
     70 H15         8.5259   18.8152   43.7293 H           1 MOL       0.0903
     71 H16         9.3464   16.6215   41.8232 H           1 MOL       0.0652
     72 H17         8.3299   18.0013   40.1225 H           1 MOL       0.0257
     73 H18         7.9781   19.2811   41.2937 H           1 MOL       0.0257
     74 H19         7.1374   17.7243   41.4044 H           1 MOL       0.0257
     75 H20        12.3037   18.0134   45.5100 H           1 MOL       0.2101
     76 H21         9.2735   17.7560   46.2281 H           1 MOL       0.2102
     77 H22         6.9636   17.1485   43.5513 H           1 MOL       0.2022
     78 H23         7.5985   17.3272   45.0470 H           1 MOL       0.2022
     79 H24         3.7979   15.8023   41.0585 H           1 MOL       0.0938
     80 H25         1.5790   16.1427   42.1390 H           1 MOL       0.0671
     81 H26         0.0822   15.4418   40.2577 H           1 MOL       0.0648
     82 H27         1.2529   14.3330   38.2515 H           1 MOL       0.0651
     83 H28         3.1099   12.7003   39.0383 H           1 MOL       0.0647
     84 H29         3.9671   15.6108   38.7082 H           1 MOL       0.0584
     85 H30         3.4621   14.5422   37.3946 H           1 MOL       0.0584
     86 H31         0.2605   14.0112   41.9818 H           1 MOL       0.2101
     87 H32         1.1016   16.6413   38.7327 H           1 MOL       0.2100
     88 H33         5.6228   14.1951   39.1596 H           1 MOL       0.2095
     89 H34         0.1479   11.8723   38.1086 H           1 MOL       0.0938
     90 H35        -0.8626   14.0491   37.5848 H           1 MOL       0.0671
     91 H36        -3.2856   13.4951   37.3792 H           1 MOL       0.0648
     92 H37        -4.0008   11.1756   38.1272 H           1 MOL       0.0647
     93 H38        -2.6911   10.4274   40.2581 H           1 MOL       0.0647
     94 H39        -2.7674    9.2576   37.8632 H           1 MOL       0.0584
     95 H40        -1.8308    8.6396   39.2108 H           1 MOL       0.0584
     96 H41        -1.7717   13.8215   40.2079 H           1 MOL       0.2101
     97 H42        -2.9556   11.7868   36.0486 H           1 MOL       0.2100
     98 H43        -4.3386   13.2510   39.2208 H           1 MOL       0.2100
     99 H44        -0.0402    9.8234   38.3358 H           1 MOL       0.2095
    100 H45         8.7816   15.1717   44.7723 H           1 MOL       0.0877
    101 H46         7.6595   13.4895   43.3769 H           1 MOL       0.0677
    102 H47         8.4486   14.1939   41.3068 H           1 MOL       0.2102
    103 H48         6.2197   15.8425   42.0550 H           1 MOL       0.0647
    104 H49         6.0204   13.0836   41.5182 H           1 MOL       0.2100
    105 H50         5.0724   13.3797   43.4557 H           1 MOL       0.0627
    106 H51         5.0421   16.1959   44.6323 H           1 MOL       0.0351
    107 H52         6.8064   15.6624   46.2053 H           1 MOL       0.0325
    108 H53         6.9059   14.0043   45.6411 H           1 MOL       0.0325
    109 H54         4.4564   13.5003   45.9666 H           1 MOL       0.0561
    110 H55         3.2217   14.6085   45.3472 H           1 MOL       0.0561
    111 H56         5.1046   15.1989   47.3661 H           1 MOL       0.2094
@<TRIPOS>BOND
     1     2     1   1
     2     1     7   1
     3    11     1   1
     4     3     2   1
     5     2     8   1
     6     4     3   1
     7     3     9   1
     8     4     5   1
     9    10     4   1
    10     5     6   1
    11     5    11   1
    12     6    12   1
    13    13    10   1
    14    14    13   1
    15    22    13   1
    16    15    14   1
    17    14    19   1
    18    16    15   1
    19    15    20   1
    20    16    17   1
    21    21    16   1
    22    17    18   1
    23    17    22   1
    24    45    21   1
    25    23    24   1
    26    23    32   1
    27    51    23   1
    28    24    25   1
    29    24    29   1
    30    25    26   1
    31    25    30   1
    32    27    26   1
    33    26    31   1
    34    27    28   1
    35    32    27   1
    36    28    33   1
    37    31    34   1
    38    34    35   1
    39    34    43   1
    40    35    36   1
    41    35    40   1
    42    36    37   1
    43    36    41   1
    44    38    37   1
    45    37    42   1
    46    38    39   1
    47    43    38   1
    48    39    44   1
    49    46    45   1
    50    45    53   1
    51    46    47   1
    52    48    46   1
    53    48    49   1
    54    50    48   1
    55    50    51   1
    56    50    52   1
    57    52    53   1
    58    52    54   1
    59    54    55   1
    60     1    56   1
    61     2    57   1
    62     3    58   1
    63     4    59   1
    64     5    60   1
    65     6    61   1
    66     6    62   1
    67     7    63   1
    68     8    64   1
    69     9    65   1
    70    12    66   1
    71    13    67   1
    72    14    68   1
    73    15    69   1
    74    16    70   1
    75    17    71   1
    76    18    72   1
    77    18    73   1
    78    18    74   1
    79    19    75   1
    80    20    76   1
    81    21    77   1
    82    21    78   1
    83    23    79   1
    84    24    80   1
    85    25    81   1
    86    26    82   1
    87    27    83   1
    88    28    84   1
    89    28    85   1
    90    29    86   1
    91    30    87   1
    92    33    88   1
    93    34    89   1
    94    35    90   1
    95    36    91   1
    96    37    92   1
    97    38    93   1
    98    39    94   1
    99    39    95   1
   100    40    96   1
   101    41    97   1
   102    42    98   1
   103    44    99   1
   104    45   100   1
   105    46   101   1
   106    47   102   1
   107    48   103   1
   108    49   104   1
   109    50   105   1
   110    52   106   1
   111    53   107   1
   112    53   108   1
   113    54   109   1
   114    54   110   1
   115    55   111   1
@<TRIPOS>SUBSTRUCTURE
     1  MOL      1

