@<TRIPOS>MOLECULE
1xd0_ligand_042
   111   115
SMALL
GAST_HUCK
****
This file was generated by PARSER (from files_GN.cpp)

@<TRIPOS>ATOM
      1 CR1        15.8698   15.4520   40.7587 C.3         1 MOL       0.1854
      2 CR2        14.7653   14.8745   39.8381 C.3         1 MOL       0.1339
      3 CR3        13.3900   15.4943   40.1933 C.3         1 MOL       0.1144
      4 CR4        13.0757   15.3624   41.7190 C.3         1 MOL       0.1184
      5 CR5        14.2848   15.8266   42.5998 C.3         1 MOL       0.1134
      6 CR6        14.1174   15.4503   44.0998 C.3         1 MOL       0.0730
      7 OR1        16.0832   16.8385   40.4941 O.3         1 MOL      -0.3649
      8 OR2        15.0923   15.0995   38.4631 O.3         1 MOL      -0.3841
      9 OR3        12.3763   14.8711   39.4083 O.3         1 MOL      -0.3864
     10 OR4        11.8218   15.9619   42.1287 O.3         1 MOL      -0.3401
     11 OR5        15.5169   15.2231   42.1386 O.3         1 MOL      -0.3407
     12 OR6        13.5184   16.5034   44.8521 O.3         1 MOL      -0.3924
     13 CV1        11.5339   17.3534   41.8410 C.3         1 MOL       0.1886
     14 CV2        10.4234   17.9124   42.7678 C.3         1 MOL       0.1370
     15 CV3         9.0617   17.2282   42.4655 C.3         1 MOL       0.1304
     16 CV4         8.6965   17.2827   40.9477 C.3         1 MOL       0.0334
     17 CV5         9.9125   16.8799   40.0542 C.3         1 MOL       0.1038
     18 CV6         9.7279   17.2576   38.5593 C.3         1 MOL      -0.0332
     19 OV2        10.7876   17.7320   44.1391 O.3         1 MOL      -0.3840
     20 OV3         8.0294   17.8330   43.2380 O.3         1 MOL      -0.3834
     21 NV4         7.4460   16.5319   40.6194 N.4         1 MOL       0.2370
     22 OV5        11.1275   17.5464   40.4739 O.3         1 MOL      -0.3401
     23 CQ1         2.3897   15.6889   39.7661 C.3         1 MOL       0.1883
     24 CQ2         0.8874   16.0151   39.9923 C.3         1 MOL       0.1341
     25 CQ3         0.0403   14.7245   39.8237 C.3         1 MOL       0.1144
     26 CQ4         0.3063   14.0250   38.4559 C.3         1 MOL       0.1184
     27 CQ5         1.8397   13.8254   38.2705 C.3         1 MOL       0.1134
     28 CQ6         2.2734   13.2890   36.8855 C.3         1 MOL       0.0730
     29 OQ2         0.6719   16.5994   41.2696 O.3         1 MOL      -0.3841
     30 OQ3        -1.3475   15.0522   39.9415 O.3         1 MOL      -0.3864
     31 OQ4        -0.3927   12.7561   38.4817 O.3         1 MOL      -0.3401
     32 OQ5         2.5347   15.0849   38.4617 O.3         1 MOL      -0.3405
     33 OQ6         2.4866   11.8831   36.9214 O.3         1 MOL      -0.3924
     34 CW1        -1.1863   12.3506   37.3277 C.3         1 MOL       0.1884
     35 CW2        -2.6418   12.0525   37.7834 C.3         1 MOL       0.1341
     36 CW3        -2.6920   10.7619   38.6448 C.3         1 MOL       0.1141
     37 CW4        -1.9890    9.5694   37.9279 C.3         1 MOL       0.1119
     38 CW5        -0.5643    9.9729   37.4540 C.3         1 MOL       0.1130
     39 CW6         0.1234    8.8639   36.6030 C.3         1 MOL       0.0730
     40 OW2        -3.1834   13.1563   38.5042 O.3         1 MOL      -0.3841
     41 OW3        -4.0617   10.4542   38.9214 O.3         1 MOL      -0.3864
     42 OW4        -1.8899    8.4557   38.8254 O.3         1 MOL      -0.3865
     43 OW5        -0.6183   11.1853   36.6682 O.3         1 MOL      -0.3405
     44 OW6         0.2212    9.2114   35.2053 O.3         1 MOL      -0.3924
     45 CY1         7.2815   15.0984   41.0378 C.3         1 MOL       0.0073
     46 CY2         6.6530   14.2127   39.9218 C.3         1 MOL       0.1257
     47 OY2         7.4012   14.2745   38.7069 O.3         1 MOL      -0.3835
     48 CY3         5.1565   14.5437   39.6480 C.3         1 MOL       0.1127
     49 OY3         4.6424   13.5762   38.7313 O.3         1 MOL      -0.3864
     50 CY4         4.2973   14.5220   40.9579 C.3         1 MOL       0.0953
     51 OY4         2.8808   14.8006   40.8015 O.3         1 MOL      -0.3424
     52 CY5         4.9174   15.3839   42.1018 C.3         1 MOL       0.0162
     53 CY6         6.4091   14.9726   42.3289 C.3         1 MOL       0.0002
     54 CY7         4.0785   15.3612   43.4163 C.3         1 MOL       0.0497
     55 OY7         3.5374   14.0844   43.7530 O.3         1 MOL      -0.3946
     56 H1         16.8045   14.9270   40.5639 H           1 MOL       0.0935
     57 H2         14.7214   13.7906   39.9852 H           1 MOL       0.0671
     58 H3         13.4191   16.5497   39.9121 H           1 MOL       0.0648
     59 H4         12.9397   14.2981   41.9024 H           1 MOL       0.0651
     60 H5         14.3903   16.9149   42.5368 H           1 MOL       0.0647
     61 H6         15.1001   15.2548   44.5376 H           1 MOL       0.0584
     62 H7         13.5194   14.5448   44.1998 H           1 MOL       0.0584
     63 H8         16.9189   17.0916   40.9425 H           1 MOL       0.2126
     64 H9         15.1727   16.0750   38.3611 H           1 MOL       0.2101
     65 H10        12.4782   13.9055   39.5570 H           1 MOL       0.2100
     66 H11        13.4143   16.1389   45.7624 H           1 MOL       0.2095
     67 H12        12.4316   17.9619   42.0054 H           1 MOL       0.0938
     68 H13        10.3370   18.9895   42.5793 H           1 MOL       0.0672
     69 H14         9.1372   16.1978   42.7911 H           1 MOL       0.0679
     70 H15         8.4740   18.3286   40.7206 H           1 MOL       0.0903
     71 H16        10.0604   15.7961   40.1131 H           1 MOL       0.0652
     72 H17        10.6201   16.9838   37.9978 H           1 MOL       0.0257
     73 H18         9.5670   18.3308   38.4574 H           1 MOL       0.0257
     74 H19         8.8817   16.7337   38.1274 H           1 MOL       0.0257
     75 H20         9.9876   17.9661   44.6454 H           1 MOL       0.2101
     76 H21         8.2606   18.7981   43.2921 H           1 MOL       0.2102
     77 H22         7.3209   16.5792   39.6092 H           1 MOL       0.2022
     78 H23         6.6772   17.0542   41.0375 H           1 MOL       0.2022
     79 H24         2.9414   16.6298   39.7774 H           1 MOL       0.0938
     80 H25         0.5705   16.7448   39.2396 H           1 MOL       0.0671
     81 H26         0.2818   14.0369   40.6373 H           1 MOL       0.0648
     82 H27        -0.0719   14.6971   37.6696 H           1 MOL       0.0651
     83 H28         2.1897   13.1078   39.0161 H           1 MOL       0.0647
     84 H29         3.2202   13.7335   36.5812 H           1 MOL       0.0584
     85 H30         1.5281   13.5194   36.1204 H           1 MOL       0.0584
     86 H31         1.0439   15.9673   41.9213 H           1 MOL       0.2101
     87 H32        -1.6972   14.3971   40.5815 H           1 MOL       0.2100
     88 H33         2.7111   11.6207   35.9956 H           1 MOL       0.2095
     89 H34        -1.2415   13.1421   36.5666 H           1 MOL       0.0938
     90 H35        -3.2562   11.8939   36.8935 H           1 MOL       0.0671
     91 H36        -2.1949   10.9545   39.6077 H           1 MOL       0.0648
     92 H37        -2.5908    9.2789   37.0623 H           1 MOL       0.0647
     93 H38         0.0600   10.1460   38.3256 H           1 MOL       0.0647
     94 H39        -0.4183    7.9048   36.6620 H           1 MOL       0.0584
     95 H40         1.1444    8.6873   36.9658 H           1 MOL       0.0584
     96 H41        -3.2192   13.8915   37.8593 H           1 MOL       0.2101
     97 H42        -4.0629    9.5387   39.2795 H           1 MOL       0.2100
     98 H43        -2.7658    8.0151   38.7933 H           1 MOL       0.2100
     99 H44         0.6867    8.4392   34.7844 H           1 MOL       0.2095
    100 H45         8.2591   14.6557   41.2418 H           1 MOL       0.0877
    101 H46         6.7139   13.1716   40.2567 H           1 MOL       0.0677
    102 H47         7.0255   15.0141   38.1874 H           1 MOL       0.2102
    103 H48         5.0909   15.5340   39.1904 H           1 MOL       0.0647
    104 H49         5.1056   13.7673   37.8889 H           1 MOL       0.2100
    105 H50         4.3083   13.4897   41.3113 H           1 MOL       0.0627
    106 H51         4.9149   16.4195   41.7604 H           1 MOL       0.0351
    107 H52         6.8364   15.5892   43.1163 H           1 MOL       0.0325
    108 H53         6.4408   13.9370   42.6846 H           1 MOL       0.0325
    109 H54         3.2335   16.0340   43.2895 H           1 MOL       0.0561
    110 H55         4.6735   15.7250   44.2585 H           1 MOL       0.0561
    111 H56         4.3185   13.4918   43.9146 H           1 MOL       0.2094
@<TRIPOS>BOND
     1     2     1   1
     2     1     7   1
     3    11     1   1
     4     3     2   1
     5     2     8   1
     6     4     3   1
     7     3     9   1
     8     4     5   1
     9    10     4   1
    10     5     6   1
    11     5    11   1
    12     6    12   1
    13    13    10   1
    14    14    13   1
    15    22    13   1
    16    15    14   1
    17    14    19   1
    18    16    15   1
    19    15    20   1
    20    16    17   1
    21    21    16   1
    22    17    18   1
    23    17    22   1
    24    45    21   1
    25    23    24   1
    26    23    32   1
    27    51    23   1
    28    24    25   1
    29    24    29   1
    30    25    26   1
    31    25    30   1
    32    27    26   1
    33    26    31   1
    34    27    28   1
    35    32    27   1
    36    28    33   1
    37    31    34   1
    38    34    35   1
    39    34    43   1
    40    35    36   1
    41    35    40   1
    42    36    37   1
    43    36    41   1
    44    38    37   1
    45    37    42   1
    46    38    39   1
    47    43    38   1
    48    39    44   1
    49    46    45   1
    50    45    53   1
    51    46    47   1
    52    48    46   1
    53    48    49   1
    54    50    48   1
    55    50    51   1
    56    50    52   1
    57    52    53   1
    58    52    54   1
    59    54    55   1
    60     1    56   1
    61     2    57   1
    62     3    58   1
    63     4    59   1
    64     5    60   1
    65     6    61   1
    66     6    62   1
    67     7    63   1
    68     8    64   1
    69     9    65   1
    70    12    66   1
    71    13    67   1
    72    14    68   1
    73    15    69   1
    74    16    70   1
    75    17    71   1
    76    18    72   1
    77    18    73   1
    78    18    74   1
    79    19    75   1
    80    20    76   1
    81    21    77   1
    82    21    78   1
    83    23    79   1
    84    24    80   1
    85    25    81   1
    86    26    82   1
    87    27    83   1
    88    28    84   1
    89    28    85   1
    90    29    86   1
    91    30    87   1
    92    33    88   1
    93    34    89   1
    94    35    90   1
    95    36    91   1
    96    37    92   1
    97    38    93   1
    98    39    94   1
    99    39    95   1
   100    40    96   1
   101    41    97   1
   102    42    98   1
   103    44    99   1
   104    45   100   1
   105    46   101   1
   106    47   102   1
   107    48   103   1
   108    49   104   1
   109    50   105   1
   110    52   106   1
   111    53   107   1
   112    53   108   1
   113    54   109   1
   114    54   110   1
   115    55   111   1
@<TRIPOS>SUBSTRUCTURE
     1  MOL      1

