@<TRIPOS>MOLECULE
1xd0_ligand_031
   111   115
SMALL
GAST_HUCK
****
This file was generated by PARSER (from files_GN.cpp)

@<TRIPOS>ATOM
      1 CR1         3.9614   14.7844   46.0384 C.3         1 MOL       0.1854
      2 CR2         5.3278   14.0498   46.0497 C.3         1 MOL       0.1339
      3 CR3         6.1917   14.5389   44.8517 C.3         1 MOL       0.1144
      4 CR4         5.4038   14.3769   43.5109 C.3         1 MOL       0.1184
      5 CR5         4.0343   15.1190   43.6139 C.3         1 MOL       0.1134
      6 CR6         3.1317   14.9739   42.3685 C.3         1 MOL       0.0730
      7 OR1         4.1102   16.1664   46.3764 O.3         1 MOL      -0.3649
      8 OR2         5.9741   14.2608   47.3060 O.3         1 MOL      -0.3841
      9 OR3         7.4369   13.8444   44.7884 O.3         1 MOL      -0.3864
     10 OR4         6.1538   14.6827   42.3145 O.3         1 MOL      -0.3401
     11 OR5         3.3020   14.6353   44.7596 O.3         1 MOL      -0.3407
     12 OR6         2.3018   13.8193   42.4462 O.3         1 MOL      -0.3924
     13 CV1         6.7369   15.9727   42.0369 C.3         1 MOL       0.1886
     14 CV2         8.2599   15.7481   41.7591 C.3         1 MOL       0.1370
     15 CV3         9.0741   17.0714   41.8125 C.3         1 MOL       0.1304
     16 CV4         8.6986   17.9416   43.0515 C.3         1 MOL       0.0334
     17 CV5         7.1583   18.1992   43.0669 C.3         1 MOL       0.1038
     18 CV6         6.5913   19.1457   41.9853 C.3         1 MOL      -0.0332
     19 OV2         8.8488   14.8378   42.6844 O.3         1 MOL      -0.3840
     20 OV3         8.9180   17.8183   40.6010 O.3         1 MOL      -0.3834
     21 NV4         9.0576   17.3349   44.3811 N.4         1 MOL       0.2370
     22 OV5         6.4684   16.9399   43.0774 O.3         1 MOL      -0.3401
     23 CQ1        14.1286   18.1407   41.2181 C.3         1 MOL       0.1883
     24 CQ2        13.7849   18.4946   39.7418 C.3         1 MOL       0.1341
     25 CQ3        13.9370   17.2723   38.7908 C.3         1 MOL       0.1144
     26 CQ4        15.2864   16.5317   39.0308 C.3         1 MOL       0.1184
     27 CQ5        15.3695   16.1493   40.5435 C.3         1 MOL       0.1134
     28 CQ6        16.6223   15.3499   40.9697 C.3         1 MOL       0.0730
     29 OQ2        12.4562   19.0216   39.6785 O.3         1 MOL      -0.3841
     30 OQ3        13.8430   17.7036   37.4282 O.3         1 MOL      -0.3864
     31 OQ4        15.3280   15.3730   38.1666 O.3         1 MOL      -0.3401
     32 OQ5        15.3341   17.3568   41.3352 O.3         1 MOL      -0.3405
     33 OQ6        17.8174   15.9415   40.4867 O.3         1 MOL      -0.3924
     34 CW1        16.5827   15.0090   37.5370 C.3         1 MOL       0.1884
     35 CW2        16.4904   15.1098   35.9931 C.3         1 MOL       0.1341
     36 CW3        15.4694   14.0778   35.4454 C.3         1 MOL       0.1141
     37 CW4        15.7934   12.6433   35.9493 C.3         1 MOL       0.1119
     38 CW5        16.0600   12.6103   37.4897 C.3         1 MOL       0.1130
     39 CW6        16.6982   11.2745   37.9620 C.3         1 MOL       0.0730
     40 OW2        16.1564   16.4372   35.5880 O.3         1 MOL      -0.3841
     41 OW3        15.4805   14.1179   34.0173 O.3         1 MOL      -0.3864
     42 OW4        14.6869   11.8070   35.6001 O.3         1 MOL      -0.3865
     43 OW5        16.9506   13.6674   37.9072 O.3         1 MOL      -0.3405
     44 OW6        18.0863   11.4124   38.2544 O.3         1 MOL      -0.3924
     45 CY1        10.3887   17.3821   45.0654 C.3         1 MOL       0.0073
     46 CY2        11.2899   18.6448   44.9726 C.3         1 MOL       0.1257
     47 OY2        10.5379   19.8184   45.2850 O.3         1 MOL      -0.3835
     48 CY3        12.0654   18.7497   43.6302 C.3         1 MOL       0.1127
     49 OY3        12.9676   19.8638   43.7247 O.3         1 MOL      -0.3864
     50 CY4        12.8595   17.4524   43.2625 C.3         1 MOL       0.0953
     51 OY4        13.0352   17.4245   41.8235 O.3         1 MOL      -0.3424
     52 CY5        12.1733   16.0824   43.6320 C.3         1 MOL       0.0162
     53 CY6        11.2625   16.1108   44.8964 C.3         1 MOL       0.0002
     54 CY7        13.2398   14.9518   43.7441 C.3         1 MOL       0.0497
     55 OY7        12.6470   13.6625   43.6107 O.3         1 MOL      -0.3946
     56 H1          3.3137   14.3315   46.7881 H           1 MOL       0.0935
     57 H2          5.1416   12.9763   45.9464 H           1 MOL       0.0671
     58 H3          6.4329   15.5879   45.0349 H           1 MOL       0.0648
     59 H4          5.1850   13.3100   43.4059 H           1 MOL       0.0651
     60 H5          4.2051   16.1843   43.7435 H           1 MOL       0.0647
     61 H6          3.7256   14.9305   41.4558 H           1 MOL       0.0584
     62 H7          2.4765   15.8460   42.3041 H           1 MOL       0.0584
     63 H8          4.6234   16.1823   47.2153 H           1 MOL       0.2126
     64 H9          6.5956   15.0045   47.1696 H           1 MOL       0.2101
     65 H10         7.9403   14.1488   45.5758 H           1 MOL       0.2100
     66 H11         2.2660   13.4692   41.5308 H           1 MOL       0.2095
     67 H12         6.2672   16.3280   41.1136 H           1 MOL       0.0938
     68 H13         8.3738   15.3054   40.7655 H           1 MOL       0.0672
     69 H14        10.1256   16.8433   41.8310 H           1 MOL       0.0679
     70 H15         9.1713   18.9087   42.9558 H           1 MOL       0.0903
     71 H16         6.9056   18.6792   44.0158 H           1 MOL       0.0652
     72 H17         5.5454   19.3726   42.1979 H           1 MOL       0.0257
     73 H18         6.6369   18.6866   40.9996 H           1 MOL       0.0257
     74 H19         7.1439   20.0870   41.9698 H           1 MOL       0.0257
     75 H20         8.2696   14.0479   42.6643 H           1 MOL       0.2101
     76 H21         9.3360   17.2661   39.9126 H           1 MOL       0.2102
     77 H22         8.7717   16.3546   44.3575 H           1 MOL       0.2022
     78 H23         8.4346   17.7849   45.0606 H           1 MOL       0.2022
     79 H24        14.3174   19.0808   41.7396 H           1 MOL       0.0938
     80 H25        14.4638   19.2812   39.4049 H           1 MOL       0.0671
     81 H26        13.1061   16.5785   38.9690 H           1 MOL       0.0648
     82 H27        16.0851   17.2393   38.7832 H           1 MOL       0.0651
     83 H28        14.5096   15.5213   40.7927 H           1 MOL       0.0647
     84 H29        16.5659   14.3255   40.6019 H           1 MOL       0.0584
     85 H30        16.6790   15.3065   42.0601 H           1 MOL       0.0584
     86 H31        12.2719   19.2060   38.7343 H           1 MOL       0.2101
     87 H32        14.5945   18.3230   37.3020 H           1 MOL       0.2100
     88 H33        17.8845   16.8006   40.9501 H           1 MOL       0.2095
     89 H34        17.4108   15.6456   37.8592 H           1 MOL       0.0938
     90 H35        17.4743   14.8838   35.5718 H           1 MOL       0.0671
     91 H36        14.4658   14.3596   35.7802 H           1 MOL       0.0648
     92 H37        16.6827   12.2755   35.4287 H           1 MOL       0.0647
     93 H38        15.1050   12.7276   38.0085 H           1 MOL       0.0647
     94 H39        16.5896   10.5010   37.2048 H           1 MOL       0.0584
     95 H40        16.1947   10.9283   38.8655 H           1 MOL       0.0584
     96 H41        15.2644   16.6153   35.9534 H           1 MOL       0.2101
     97 H42        14.6994   13.5970   33.7303 H           1 MOL       0.2100
     98 H43        14.4903   11.2645   36.3906 H           1 MOL       0.2100
     99 H44        18.1201   11.9351   39.0844 H           1 MOL       0.2095
    100 H45        10.0873   17.3614   46.1214 H           1 MOL       0.0877
    101 H46        12.0499   18.5773   45.7608 H           1 MOL       0.0677
    102 H47        10.1406   20.1213   44.4426 H           1 MOL       0.2102
    103 H48        11.3802   18.9834   42.8157 H           1 MOL       0.0647
    104 H49        12.4237   20.6337   43.9996 H           1 MOL       0.2100
    105 H50        13.8331   17.4997   43.7686 H           1 MOL       0.0627
    106 H51        11.5455   15.7885   42.8187 H           1 MOL       0.0351
    107 H52        10.6118   15.2331   44.8986 H           1 MOL       0.0325
    108 H53        11.9001   16.0259   45.7788 H           1 MOL       0.0325
    109 H54        13.7541   14.9943   44.7078 H           1 MOL       0.0561
    110 H55        13.9853   15.0455   42.9569 H           1 MOL       0.0561
    111 H56        12.3581   13.6249   42.6745 H           1 MOL       0.2094
@<TRIPOS>BOND
     1     2     1   1
     2     1     7   1
     3    11     1   1
     4     3     2   1
     5     2     8   1
     6     4     3   1
     7     3     9   1
     8     4     5   1
     9    10     4   1
    10     5     6   1
    11     5    11   1
    12     6    12   1
    13    13    10   1
    14    14    13   1
    15    22    13   1
    16    15    14   1
    17    14    19   1
    18    16    15   1
    19    15    20   1
    20    16    17   1
    21    21    16   1
    22    17    18   1
    23    17    22   1
    24    45    21   1
    25    23    24   1
    26    23    32   1
    27    51    23   1
    28    24    25   1
    29    24    29   1
    30    25    26   1
    31    25    30   1
    32    27    26   1
    33    26    31   1
    34    27    28   1
    35    32    27   1
    36    28    33   1
    37    31    34   1
    38    34    35   1
    39    34    43   1
    40    35    36   1
    41    35    40   1
    42    36    37   1
    43    36    41   1
    44    38    37   1
    45    37    42   1
    46    38    39   1
    47    43    38   1
    48    39    44   1
    49    46    45   1
    50    45    53   1
    51    46    47   1
    52    48    46   1
    53    48    49   1
    54    50    48   1
    55    50    51   1
    56    50    52   1
    57    52    53   1
    58    52    54   1
    59    54    55   1
    60     1    56   1
    61     2    57   1
    62     3    58   1
    63     4    59   1
    64     5    60   1
    65     6    61   1
    66     6    62   1
    67     7    63   1
    68     8    64   1
    69     9    65   1
    70    12    66   1
    71    13    67   1
    72    14    68   1
    73    15    69   1
    74    16    70   1
    75    17    71   1
    76    18    72   1
    77    18    73   1
    78    18    74   1
    79    19    75   1
    80    20    76   1
    81    21    77   1
    82    21    78   1
    83    23    79   1
    84    24    80   1
    85    25    81   1
    86    26    82   1
    87    27    83   1
    88    28    84   1
    89    28    85   1
    90    29    86   1
    91    30    87   1
    92    33    88   1
    93    34    89   1
    94    35    90   1
    95    36    91   1
    96    37    92   1
    97    38    93   1
    98    39    94   1
    99    39    95   1
   100    40    96   1
   101    41    97   1
   102    42    98   1
   103    44    99   1
   104    45   100   1
   105    46   101   1
   106    47   102   1
   107    48   103   1
   108    49   104   1
   109    50   105   1
   110    52   106   1
   111    53   107   1
   112    53   108   1
   113    54   109   1
   114    54   110   1
   115    55   111   1
@<TRIPOS>SUBSTRUCTURE
     1  MOL      1

