@<TRIPOS>MOLECULE
1xd0_ligand_051
   111   115
SMALL
GAST_HUCK
****
This file was generated by PARSER (from files_GN.cpp)

@<TRIPOS>ATOM
      1 CR1        13.7864   14.5607   43.1848 C.3         1 MOL       0.1854
      2 CR2        13.9309   15.9543   43.8483 C.3         1 MOL       0.1339
      3 CR3        14.1262   17.0563   42.7637 C.3         1 MOL       0.1144
      4 CR4        13.0682   16.9549   41.6257 C.3         1 MOL       0.1184
      5 CR5        12.9713   15.4995   41.0656 C.3         1 MOL       0.1134
      6 CR6        14.1101   15.0621   40.1005 C.3         1 MOL       0.0730
      7 OR1        13.4097   13.5719   44.1354 O.3         1 MOL      -0.3649
      8 OR2        12.7846   16.2527   44.6446 O.3         1 MOL      -0.3841
      9 OR3        15.4461   16.9925   42.2252 O.3         1 MOL      -0.3864
     10 OR4        11.7599   17.2793   42.1424 O.3         1 MOL      -0.3401
     11 OR5        12.7900   14.5510   42.1425 O.3         1 MOL      -0.3407
     12 OR6        14.2102   15.9263   38.9721 O.3         1 MOL      -0.3924
     13 CV1        11.2926   18.6482   42.2210 C.3         1 MOL       0.1886
     14 CV2        11.0865   19.1111   43.6862 C.3         1 MOL       0.1370
     15 CV3        10.0913   18.1587   44.3957 C.3         1 MOL       0.1304
     16 CV4         8.7413   18.0395   43.6176 C.3         1 MOL       0.0334
     17 CV5         8.9529   17.8989   42.0670 C.3         1 MOL       0.1038
     18 CV6         7.6841   18.2616   41.2590 C.3         1 MOL      -0.0332
     19 OV2        12.3197   19.1926   44.4006 O.3         1 MOL      -0.3840
     20 OV3         9.8921   18.6432   45.7277 O.3         1 MOL      -0.3834
     21 NV4         7.7677   17.0658   44.2082 N.4         1 MOL       0.2370
     22 OV5        10.0186   18.7348   41.5483 O.3         1 MOL      -0.3401
     23 CQ1         4.2442   15.3466   41.7906 C.3         1 MOL       0.1883
     24 CQ2         2.7069   15.5365   41.9201 C.3         1 MOL       0.1341
     25 CQ3         1.9509   14.4454   41.1178 C.3         1 MOL       0.1144
     26 CQ4         2.4107   14.4936   39.6324 C.3         1 MOL       0.1184
     27 CQ5         3.9628   14.3268   39.5686 C.3         1 MOL       0.1134
     28 CQ6         4.5161   14.4758   38.1290 C.3         1 MOL       0.0730
     29 OQ2         2.3009   15.4841   43.2814 O.3         1 MOL      -0.3841
     30 OQ3         0.5440   14.6711   41.2491 O.3         1 MOL      -0.3864
     31 OQ4         1.8017   13.4284   38.8664 O.3         1 MOL      -0.3401
     32 OQ5         4.6385   15.2982   40.4015 O.3         1 MOL      -0.3405
     33 OQ6         4.3262   15.7949   37.6208 O.3         1 MOL      -0.3924
     34 CW1         0.8142   13.7290   37.8467 C.3         1 MOL       0.1884
     35 CW2        -0.6292   13.4823   38.3548 C.3         1 MOL       0.1341
     36 CW3        -0.7657   11.9896   38.7650 C.3         1 MOL       0.1141
     37 CW4        -0.4324   11.0720   37.5541 C.3         1 MOL       0.1119
     38 CW5         0.9301   11.4742   36.8880 C.3         1 MOL       0.1130
     39 CW6         1.1406   10.8339   35.4866 C.3         1 MOL       0.0730
     40 OW2        -0.9078   14.3736   39.4474 O.3         1 MOL      -0.3841
     41 OW3        -2.0807   11.7273   39.2469 O.3         1 MOL      -0.3864
     42 OW4        -0.3842    9.7056   37.9805 O.3         1 MOL      -0.3865
     43 OW5         1.0486   12.9033   36.6914 O.3         1 MOL      -0.3405
     44 OW6         1.2782    9.4161   35.5559 O.3         1 MOL      -0.3924
     45 CY1         8.0851   15.6682   44.6556 C.3         1 MOL       0.0073
     46 CY2         8.3384   14.6247   43.5290 C.3         1 MOL       0.1257
     47 OY2         9.5549   14.9002   42.8394 O.3         1 MOL      -0.3835
     48 CY3         7.1139   14.5283   42.5776 C.3         1 MOL       0.1127
     49 OY3         7.3775   13.5589   41.5642 O.3         1 MOL      -0.3864
     50 CY4         5.8155   14.1347   43.3536 C.3         1 MOL       0.0953
     51 OY4         4.6475   14.1432   42.4918 O.3         1 MOL      -0.3424
     52 CY5         5.5830   14.8934   44.7168 C.3         1 MOL       0.0162
     53 CY6         6.9045   15.1357   45.5205 C.3         1 MOL       0.0002
     54 CY7         4.5548   14.1426   45.6193 C.3         1 MOL       0.0497
     55 OY7         3.9790   14.9909   46.6099 O.3         1 MOL      -0.3946
     56 H1         14.7558   14.2566   42.7849 H           1 MOL       0.0935
     57 H2         14.7944   15.9432   44.5175 H           1 MOL       0.0671
     58 H3         14.0533   18.0364   43.2363 H           1 MOL       0.0648
     59 H4         13.3295   17.6333   40.8071 H           1 MOL       0.0651
     60 H5         12.0531   15.4429   40.4744 H           1 MOL       0.0647
     61 H6         13.9133   14.0497   39.7403 H           1 MOL       0.0584
     62 H7         15.0746   15.0521   40.6045 H           1 MOL       0.0584
     63 H8         12.4680   13.7536   44.3397 H           1 MOL       0.2126
     64 H9         13.0278   16.0524   45.5774 H           1 MOL       0.2101
     65 H10        15.5642   17.8257   41.7194 H           1 MOL       0.2100
     66 H11        13.3851   15.7844   38.4619 H           1 MOL       0.2095
     67 H12        11.9728   19.3455   41.7219 H           1 MOL       0.0938
     68 H13        10.6651   20.1182   43.6829 H           1 MOL       0.0672
     69 H14        10.5458   17.1681   44.4617 H           1 MOL       0.0679
     70 H15         8.2524   19.0066   43.7537 H           1 MOL       0.0903
     71 H16         9.1995   16.8687   41.8150 H           1 MOL       0.0652
     72 H17         7.8534   18.0614   40.2000 H           1 MOL       0.0257
     73 H18         7.4575   19.3200   41.3884 H           1 MOL       0.0257
     74 H19         6.8247   17.6763   41.5849 H           1 MOL       0.0257
     75 H20        12.4564   20.1544   44.5854 H           1 MOL       0.2101
     76 H21        10.4952   18.1044   46.2765 H           1 MOL       0.2102
     77 H22         6.9695   17.0045   43.5750 H           1 MOL       0.2022
     78 H23         7.4330   17.5365   45.0493 H           1 MOL       0.2022
     79 H24         4.7189   16.2389   42.2100 H           1 MOL       0.0938
     80 H25         2.4393   16.5259   41.5373 H           1 MOL       0.0671
     81 H26         2.1760   13.4580   41.5431 H           1 MOL       0.0648
     82 H27         2.1572   15.4803   39.2337 H           1 MOL       0.0651
     83 H28         4.2227   13.3226   39.9140 H           1 MOL       0.0647
     84 H29         4.0240   13.7732   37.4526 H           1 MOL       0.0584
     85 H30         5.5864   14.2538   38.1233 H           1 MOL       0.0584
     86 H31         2.8915   16.1107   43.7432 H           1 MOL       0.2101
     87 H32         0.1623   13.8277   41.5452 H           1 MOL       0.2100
     88 H33         4.9073   16.3665   38.1662 H           1 MOL       0.2095
     89 H34         0.8970   14.7594   37.4939 H           1 MOL       0.0938
     90 H35        -1.3324   13.7124   37.5410 H           1 MOL       0.0671
     91 H36        -0.0714   11.7612   39.5750 H           1 MOL       0.0648
     92 H37        -1.2347   11.1742   36.8124 H           1 MOL       0.0647
     93 H38         1.7529   11.1487   37.5360 H           1 MOL       0.0647
     94 H39         2.0478   11.2403   35.0335 H           1 MOL       0.0584
     95 H40         0.2964   11.0740   34.8378 H           1 MOL       0.0584
     96 H41        -1.9055   14.3563   39.5330 H           1 MOL       0.2101
     97 H42        -2.1234   12.1910   40.1097 H           1 MOL       0.2100
     98 H43        -0.7055    9.1880   37.2132 H           1 MOL       0.2100
     99 H44         2.0849    9.2637   36.0910 H           1 MOL       0.2095
    100 H45         8.9568   15.6951   45.3170 H           1 MOL       0.0877
    101 H46         8.4832   13.6437   43.9893 H           1 MOL       0.0677
    102 H47         9.4955   14.4021   41.9915 H           1 MOL       0.2102
    103 H48         6.9756   15.4814   42.0738 H           1 MOL       0.0647
    104 H49         6.5755   12.9979   41.5114 H           1 MOL       0.2100
    105 H50         5.9432   13.0810   43.6091 H           1 MOL       0.0627
    106 H51         5.1674   15.8793   44.4954 H           1 MOL       0.0351
    107 H52         6.7076   15.8471   46.3289 H           1 MOL       0.0325
    108 H53         7.2172   14.1975   45.9930 H           1 MOL       0.0325
    109 H54         5.0292   13.2950   46.1172 H           1 MOL       0.0561
    110 H55         3.7394   13.7448   45.0205 H           1 MOL       0.0561
    111 H56         4.7186   15.2665   47.1913 H           1 MOL       0.2094
@<TRIPOS>BOND
     1     2     1   1
     2     1     7   1
     3    11     1   1
     4     3     2   1
     5     2     8   1
     6     4     3   1
     7     3     9   1
     8     4     5   1
     9    10     4   1
    10     5     6   1
    11     5    11   1
    12     6    12   1
    13    13    10   1
    14    14    13   1
    15    22    13   1
    16    15    14   1
    17    14    19   1
    18    16    15   1
    19    15    20   1
    20    16    17   1
    21    21    16   1
    22    17    18   1
    23    17    22   1
    24    45    21   1
    25    23    24   1
    26    23    32   1
    27    51    23   1
    28    24    25   1
    29    24    29   1
    30    25    26   1
    31    25    30   1
    32    27    26   1
    33    26    31   1
    34    27    28   1
    35    32    27   1
    36    28    33   1
    37    31    34   1
    38    34    35   1
    39    34    43   1
    40    35    36   1
    41    35    40   1
    42    36    37   1
    43    36    41   1
    44    38    37   1
    45    37    42   1
    46    38    39   1
    47    43    38   1
    48    39    44   1
    49    46    45   1
    50    45    53   1
    51    46    47   1
    52    48    46   1
    53    48    49   1
    54    50    48   1
    55    50    51   1
    56    50    52   1
    57    52    53   1
    58    52    54   1
    59    54    55   1
    60     1    56   1
    61     2    57   1
    62     3    58   1
    63     4    59   1
    64     5    60   1
    65     6    61   1
    66     6    62   1
    67     7    63   1
    68     8    64   1
    69     9    65   1
    70    12    66   1
    71    13    67   1
    72    14    68   1
    73    15    69   1
    74    16    70   1
    75    17    71   1
    76    18    72   1
    77    18    73   1
    78    18    74   1
    79    19    75   1
    80    20    76   1
    81    21    77   1
    82    21    78   1
    83    23    79   1
    84    24    80   1
    85    25    81   1
    86    26    82   1
    87    27    83   1
    88    28    84   1
    89    28    85   1
    90    29    86   1
    91    30    87   1
    92    33    88   1
    93    34    89   1
    94    35    90   1
    95    36    91   1
    96    37    92   1
    97    38    93   1
    98    39    94   1
    99    39    95   1
   100    40    96   1
   101    41    97   1
   102    42    98   1
   103    44    99   1
   104    45   100   1
   105    46   101   1
   106    47   102   1
   107    48   103   1
   108    49   104   1
   109    50   105   1
   110    52   106   1
   111    53   107   1
   112    53   108   1
   113    54   109   1
   114    54   110   1
   115    55   111   1
@<TRIPOS>SUBSTRUCTURE
     1  MOL      1

