@<TRIPOS>MOLECULE
1xd0_ligand_034
   111   115
SMALL
GAST_HUCK
****
This file was generated by PARSER (from files_GN.cpp)

@<TRIPOS>ATOM
      1 CR1         5.5973   15.0083   42.8899 C.3         1 MOL       0.1854
      2 CR2         6.3158   14.5139   44.1697 C.3         1 MOL       0.1339
      3 CR3         7.1579   15.6460   44.8189 C.3         1 MOL       0.1144
      4 CR4         8.1197   16.2846   43.7745 C.3         1 MOL       0.1184
      5 CR5         7.2954   16.7265   42.5218 C.3         1 MOL       0.1134
      6 CR6         8.1719   17.2960   41.3725 C.3         1 MOL       0.0730
      7 OR1         4.5234   15.9014   43.1856 O.3         1 MOL      -0.3649
      8 OR2         5.3752   14.0069   45.1184 O.3         1 MOL      -0.3841
      9 OR3         7.8749   15.0764   45.9116 O.3         1 MOL      -0.3864
     10 OR4         8.8232   17.4562   44.2427 O.3         1 MOL      -0.3401
     11 OR5         6.5342   15.6220   41.9811 O.3         1 MOL      -0.3407
     12 OR6         9.0976   16.3319   40.8779 O.3         1 MOL      -0.3924
     13 CV1         9.9556   17.3748   45.1337 C.3         1 MOL       0.1886
     14 CV2        10.8344   18.6363   44.9533 C.3         1 MOL       0.1370
     15 CV3        11.4716   18.6444   43.5388 C.3         1 MOL       0.1304
     16 CV4        12.2790   17.3335   43.2770 C.3         1 MOL       0.0334
     17 CV5        11.4726   16.0619   43.7114 C.3         1 MOL       0.1038
     18 CV6        12.3768   14.8019   43.8368 C.3         1 MOL      -0.0332
     19 OV2        10.0649   19.8104   45.2046 O.3         1 MOL      -0.3840
     20 OV3        12.3074   19.7954   43.4142 O.3         1 MOL      -0.3834
     21 NV4        12.5794   17.1994   41.8227 N.4         1 MOL       0.2370
     22 OV5        10.7975   16.2128   44.9823 O.3         1 MOL      -0.3401
     23 CQ1        14.9224   14.7436   36.8426 C.3         1 MOL       0.1883
     24 CQ2        16.2879   15.2014   36.2420 C.3         1 MOL       0.1341
     25 CQ3        16.3523   14.9015   34.7157 C.3         1 MOL       0.1144
     26 CQ4        15.0876   15.4173   33.9598 C.3         1 MOL       0.1184
     27 CQ5        13.7603   15.0028   34.6758 C.3         1 MOL       0.1134
     28 CQ6        13.2908   13.5512   34.3747 C.3         1 MOL       0.0730
     29 OQ2        16.5129   16.5953   36.4366 O.3         1 MOL      -0.3841
     30 OQ3        16.5396   13.4989   34.5100 O.3         1 MOL      -0.3864
     31 OQ4        15.1690   16.8664   33.9059 O.3         1 MOL      -0.3401
     32 OQ5        13.8096   15.2757   36.0953 O.3         1 MOL      -0.3405
     33 OQ6        12.5012   13.0360   35.4450 O.3         1 MOL      -0.3924
     34 CW1        14.5392   17.5592   32.8081 C.3         1 MOL       0.1884
     35 CW2        15.5476   17.7977   31.6476 C.3         1 MOL       0.1341
     36 CW3        14.9622   18.7585   30.5751 C.3         1 MOL       0.1141
     37 CW4        14.3535   20.0465   31.2032 C.3         1 MOL       0.1119
     38 CW5        13.4447   19.7370   32.4346 C.3         1 MOL       0.1130
     39 CW6        11.9964   19.3146   32.0659 C.3         1 MOL       0.0730
     40 OW2        16.7825   18.3081   32.1583 O.3         1 MOL      -0.3841
     41 OW3        13.9792   18.0635   29.8077 O.3         1 MOL      -0.3864
     42 OW4        15.3993   20.9366   31.5960 O.3         1 MOL      -0.3865
     43 OW5        14.0842   18.8163   33.3482 O.3         1 MOL      -0.3405
     44 OW6        11.1163   19.5210   33.1670 O.3         1 MOL      -0.3924
     45 CY1        13.7089   17.9674   41.2318 C.3         1 MOL       0.0073
     46 CY2        13.3840   18.3089   39.7496 C.3         1 MOL       0.1257
     47 OY2        12.0784   18.9036   39.7125 O.3         1 MOL      -0.3835
     48 CY3        13.4579   17.0674   38.8051 C.3         1 MOL       0.1127
     49 OY3        13.3150   17.5518   37.4684 O.3         1 MOL      -0.3864
     50 CY4        14.7876   16.2508   38.9464 C.3         1 MOL       0.0953
     51 OY4        14.7552   14.9719   38.2602 O.3         1 MOL      -0.3424
     52 CY5        15.1022   15.9233   40.4456 C.3         1 MOL       0.0162
     53 CY6        15.0545   17.2027   41.3358 C.3         1 MOL       0.0002
     54 CY7        16.4525   15.1730   40.6619 C.3         1 MOL       0.0497
     55 OY7        17.5793   15.9316   40.2290 O.3         1 MOL      -0.3946
     56 H1          5.1654   14.1452   42.3754 H           1 MOL       0.0935
     57 H2          6.9874   13.6992   43.8855 H           1 MOL       0.0671
     58 H3          6.4859   16.4155   45.2046 H           1 MOL       0.0648
     59 H4          8.8309   15.5185   43.4601 H           1 MOL       0.0651
     60 H5          6.6043   17.5251   42.8152 H           1 MOL       0.0647
     61 H6          8.7300   18.1697   41.7171 H           1 MOL       0.0584
     62 H7          7.5293   17.6184   40.5483 H           1 MOL       0.0584
     63 H8          4.2085   15.6466   44.0785 H           1 MOL       0.2126
     64 H9          5.1157   13.1231   44.7824 H           1 MOL       0.2101
     65 H10         8.1441   15.8373   46.4627 H           1 MOL       0.2100
     66 H11         8.5449   15.6387   40.4588 H           1 MOL       0.2095
     67 H12         9.5930   17.3817   46.1601 H           1 MOL       0.0938
     68 H13        11.6361   18.6196   45.6950 H           1 MOL       0.0672
     69 H14        10.6763   18.7356   42.7900 H           1 MOL       0.0679
     70 H15        13.2007   17.3747   43.8636 H           1 MOL       0.0903
     71 H16        10.7189   15.8432   42.9454 H           1 MOL       0.0652
     72 H17        11.8003   13.9620   44.2346 H           1 MOL       0.0257
     73 H18        13.2170   14.9978   44.5115 H           1 MOL       0.0257
     74 H19        12.7688   14.5067   42.8568 H           1 MOL       0.0257
     75 H20         9.6707   20.0458   44.3398 H           1 MOL       0.2101
     76 H21        11.7334   20.4906   43.0197 H           1 MOL       0.2102
     77 H22        11.7216   17.4615   41.3260 H           1 MOL       0.2022
     78 H23        12.7374   16.2118   41.6152 H           1 MOL       0.2022
     79 H24        14.8842   13.6544   36.7546 H           1 MOL       0.0938
     80 H25        17.0994   14.6673   36.7511 H           1 MOL       0.0671
     81 H26        17.2399   15.3986   34.3020 H           1 MOL       0.0648
     82 H27        15.1065   14.9948   32.9462 H           1 MOL       0.0651
     83 H28        12.9695   15.6497   34.2881 H           1 MOL       0.0647
     84 H29        14.1366   12.8780   34.2318 H           1 MOL       0.0584
     85 H30        12.6890   13.5333   33.4614 H           1 MOL       0.0584
     86 H31        15.7410   17.0368   36.0377 H           1 MOL       0.2101
     87 H32        16.7640   13.4057   33.5632 H           1 MOL       0.2100
     88 H33        11.6758   13.5672   35.4354 H           1 MOL       0.2095
     89 H34        13.6791   16.9852   32.4528 H           1 MOL       0.0938
     90 H35        15.7805   16.8408   31.1693 H           1 MOL       0.0671
     91 H36        15.7600   19.0384   29.8819 H           1 MOL       0.0648
     92 H37        13.7779   20.5726   30.4365 H           1 MOL       0.0647
     93 H38        13.3394   20.6697   32.9970 H           1 MOL       0.0647
     94 H39        11.9503   18.2652   31.7788 H           1 MOL       0.0584
     95 H40        11.6317   19.9123   31.2282 H           1 MOL       0.0584
     96 H41        16.5936   19.2296   32.4333 H           1 MOL       0.2101
     97 H42        13.7867   18.6446   29.0391 H           1 MOL       0.2100
     98 H43        14.9823   21.8253   31.5846 H           1 MOL       0.2100
     99 H44        11.0176   20.4953   33.2167 H           1 MOL       0.2095
    100 H45        13.8186   18.9173   41.7605 H           1 MOL       0.0877
    101 H46        14.0989   19.0598   39.3983 H           1 MOL       0.0677
    102 H47        11.9640   19.3038   38.8259 H           1 MOL       0.2102
    103 H48        12.6157   16.3994   39.0223 H           1 MOL       0.0647
    104 H49        12.5549   18.1627   37.4892 H           1 MOL       0.2100
    105 H50        15.6142   16.8606   38.5778 H           1 MOL       0.0627
    106 H51        14.3208   15.2417   40.8066 H           1 MOL       0.0351
    107 H52        15.2215   16.9248   42.3775 H           1 MOL       0.0325
    108 H53        15.8605   17.8858   41.0440 H           1 MOL       0.0325
    109 H54        16.4473   14.2300   40.1064 H           1 MOL       0.0561
    110 H55        16.5830   14.9290   41.7222 H           1 MOL       0.0561
    111 H56        17.6636   16.6687   40.8671 H           1 MOL       0.2094
@<TRIPOS>BOND
     1     2     1   1
     2     1     7   1
     3    11     1   1
     4     3     2   1
     5     2     8   1
     6     4     3   1
     7     3     9   1
     8     4     5   1
     9    10     4   1
    10     5     6   1
    11     5    11   1
    12     6    12   1
    13    13    10   1
    14    14    13   1
    15    22    13   1
    16    15    14   1
    17    14    19   1
    18    16    15   1
    19    15    20   1
    20    16    17   1
    21    21    16   1
    22    17    18   1
    23    17    22   1
    24    45    21   1
    25    23    24   1
    26    23    32   1
    27    51    23   1
    28    24    25   1
    29    24    29   1
    30    25    26   1
    31    25    30   1
    32    27    26   1
    33    26    31   1
    34    27    28   1
    35    32    27   1
    36    28    33   1
    37    31    34   1
    38    34    35   1
    39    34    43   1
    40    35    36   1
    41    35    40   1
    42    36    37   1
    43    36    41   1
    44    38    37   1
    45    37    42   1
    46    38    39   1
    47    43    38   1
    48    39    44   1
    49    46    45   1
    50    45    53   1
    51    46    47   1
    52    48    46   1
    53    48    49   1
    54    50    48   1
    55    50    51   1
    56    50    52   1
    57    52    53   1
    58    52    54   1
    59    54    55   1
    60     1    56   1
    61     2    57   1
    62     3    58   1
    63     4    59   1
    64     5    60   1
    65     6    61   1
    66     6    62   1
    67     7    63   1
    68     8    64   1
    69     9    65   1
    70    12    66   1
    71    13    67   1
    72    14    68   1
    73    15    69   1
    74    16    70   1
    75    17    71   1
    76    18    72   1
    77    18    73   1
    78    18    74   1
    79    19    75   1
    80    20    76   1
    81    21    77   1
    82    21    78   1
    83    23    79   1
    84    24    80   1
    85    25    81   1
    86    26    82   1
    87    27    83   1
    88    28    84   1
    89    28    85   1
    90    29    86   1
    91    30    87   1
    92    33    88   1
    93    34    89   1
    94    35    90   1
    95    36    91   1
    96    37    92   1
    97    38    93   1
    98    39    94   1
    99    39    95   1
   100    40    96   1
   101    41    97   1
   102    42    98   1
   103    44    99   1
   104    45   100   1
   105    46   101   1
   106    47   102   1
   107    48   103   1
   108    49   104   1
   109    50   105   1
   110    52   106   1
   111    53   107   1
   112    53   108   1
   113    54   109   1
   114    54   110   1
   115    55   111   1
@<TRIPOS>SUBSTRUCTURE
     1  MOL      1

