@<TRIPOS>MOLECULE
1xd0_ligand_009
   111   115
SMALL
GAST_HUCK
****
This file was generated by PARSER (from files_GN.cpp)

@<TRIPOS>ATOM
      1 CR1        14.0323   17.6699   38.8031 C.3         1 MOL       0.1854
      2 CR2        12.6861   16.9129   38.9556 C.3         1 MOL       0.1339
      3 CR3        12.7293   15.9546   40.1748 C.3         1 MOL       0.1144
      4 CR4        13.3676   16.5792   41.4650 C.3         1 MOL       0.1184
      5 CR5        14.6152   17.4779   41.1701 C.3         1 MOL       0.1134
      6 CR6        16.0075   16.7643   41.0959 C.3         1 MOL       0.0730
      7 OR1        13.9513   18.6420   37.7689 O.3         1 MOL      -0.3649
      8 OR2        11.5996   17.8200   39.0952 O.3         1 MOL      -0.3841
      9 OR3        13.4623   14.7939   39.7645 O.3         1 MOL      -0.3864
     10 OR4        12.4006   17.1799   42.3638 O.3         1 MOL      -0.3401
     11 OR5        14.3784   18.3352   40.0289 O.3         1 MOL      -0.3407
     12 OR6        15.9782   15.3513   41.2861 O.3         1 MOL      -0.3924
     13 CV1        11.8557   18.5161   42.2840 C.3         1 MOL       0.1886
     14 CV2        11.5817   19.0047   43.7277 C.3         1 MOL       0.1370
     15 CV3        10.4770   18.1274   44.3970 C.3         1 MOL       0.1304
     16 CV4         9.1900   18.0130   43.5206 C.3         1 MOL       0.0334
     17 CV5         9.5284   17.7711   42.0110 C.3         1 MOL       0.1038
     18 CV6         8.3454   18.0842   41.0532 C.3         1 MOL      -0.0332
     19 OV2        12.7974   18.9812   44.4863 O.3         1 MOL      -0.3840
     20 OV3        10.1739   18.6954   45.6791 O.3         1 MOL      -0.3834
     21 NV4         8.1549   17.0918   44.0863 N.4         1 MOL       0.2370
     22 OV5        10.6202   18.6082   41.5520 O.3         1 MOL      -0.3401
     23 CQ1         3.3767   15.1026   42.1291 C.3         1 MOL       0.1883
     24 CQ2         3.4248   16.3605   41.2166 C.3         1 MOL       0.1341
     25 CQ3         2.5239   16.1829   39.9731 C.3         1 MOL       0.1144
     26 CQ4         1.0707   15.7533   40.3476 C.3         1 MOL       0.1184
     27 CQ5         1.0426   14.6462   41.4566 C.3         1 MOL       0.1134
     28 CQ6         1.0262   13.1875   40.9256 C.3         1 MOL       0.0730
     29 OQ2         2.9994   17.4976   41.9651 O.3         1 MOL      -0.3841
     30 OQ3         3.1141   15.2494   39.0703 O.3         1 MOL      -0.3864
     31 OQ4         0.3500   16.8914   40.8613 O.3         1 MOL      -0.3401
     32 OQ5         2.0168   14.8323   42.5170 O.3         1 MOL      -0.3405
     33 OQ6         2.1888   12.7861   40.2137 O.3         1 MOL      -0.3924
     34 CW1        -0.4704   17.7651   40.0424 C.3         1 MOL       0.1884
     35 CW2        -1.8803   17.2188   39.6629 C.3         1 MOL       0.1341
     36 CW3        -1.9185   16.5046   38.2857 C.3         1 MOL       0.1141
     37 CW4        -1.2019   17.3521   37.2019 C.3         1 MOL       0.1119
     38 CW5         0.2343   17.7632   37.6460 C.3         1 MOL       0.1130
     39 CW6         0.9411   18.6956   36.6112 C.3         1 MOL       0.0730
     40 OW2        -2.3695   16.3413   40.6784 O.3         1 MOL      -0.3841
     41 OW3        -3.2900   16.3081   37.9312 O.3         1 MOL      -0.3864
     42 OW4        -1.1227   16.5976   35.9886 O.3         1 MOL      -0.3865
     43 OW5         0.2069   18.4110   38.9406 O.3         1 MOL      -0.3405
     44 OW6         1.3132   19.9633   37.1512 O.3         1 MOL      -0.3924
     45 CY1         8.2981   15.6001   44.2115 C.3         1 MOL       0.0073
     46 CY2         7.9149   14.7298   42.9702 C.3         1 MOL       0.1257
     47 OY2         8.8086   14.8908   41.8764 O.3         1 MOL      -0.3835
     48 CY3         6.4594   15.0020   42.5184 C.3         1 MOL       0.1127
     49 OY3         6.2144   14.2047   41.3569 O.3         1 MOL      -0.3864
     50 CY4         5.4025   14.7406   43.6441 C.3         1 MOL       0.0953
     51 OY4         4.1194   15.3548   43.3480 O.3         1 MOL      -0.3424
     52 CY5         5.8414   15.2900   45.0584 C.3         1 MOL       0.0162
     53 CY6         7.3678   15.1181   45.3696 C.3         1 MOL       0.0002
     54 CY7         5.0054   14.6754   46.2220 C.3         1 MOL       0.0497
     55 OY7         3.6134   14.9409   46.1036 O.3         1 MOL      -0.3946
     56 H1         14.8189   16.9665   38.5103 H           1 MOL       0.0935
     57 H2         12.5025   16.3339   38.0476 H           1 MOL       0.0671
     58 H3         11.7124   15.6198   40.3983 H           1 MOL       0.0648
     59 H4         13.7183   15.7340   42.0676 H           1 MOL       0.0651
     60 H5         14.7047   18.1751   42.0098 H           1 MOL       0.0647
     61 H6         16.6712   17.1705   41.8647 H           1 MOL       0.0584
     62 H7         16.4723   16.9608   40.1263 H           1 MOL       0.0584
     63 H8         14.0256   19.5117   38.2176 H           1 MOL       0.2126
     64 H9         11.6394   18.4207   38.3202 H           1 MOL       0.2101
     65 H10        12.8255   14.0446   39.7449 H           1 MOL       0.2100
     66 H11        16.8941   15.1107   41.5507 H           1 MOL       0.2095
     67 H12        12.5751   19.1992   41.8171 H           1 MOL       0.0938
     68 H13        11.2389   20.0505   43.7010 H           1 MOL       0.0672
     69 H14        10.8992   17.1354   44.5632 H           1 MOL       0.0679
     70 H15         8.7207   19.0027   43.5704 H           1 MOL       0.0903
     71 H16         9.8241   16.7347   41.8733 H           1 MOL       0.0652
     72 H17         8.6212   17.8297   40.0277 H           1 MOL       0.0257
     73 H18         8.1021   19.1490   41.0805 H           1 MOL       0.0257
     74 H19         7.4568   17.5145   41.3164 H           1 MOL       0.0257
     75 H20        13.0928   19.9178   44.5367 H           1 MOL       0.2101
     76 H21        10.6715   18.1323   46.3003 H           1 MOL       0.2102
     77 H22         7.2908   17.2726   43.5778 H           1 MOL       0.2022
     78 H23         8.0013   17.4439   45.0393 H           1 MOL       0.2022
     79 H24         3.7539   14.2194   41.6057 H           1 MOL       0.0938
     80 H25         4.4525   16.5459   40.8870 H           1 MOL       0.0671
     81 H26         2.4903   17.1410   39.4373 H           1 MOL       0.0648
     82 H27         0.5502   15.3638   39.4683 H           1 MOL       0.0651
     83 H28         0.0876   14.7457   41.9814 H           1 MOL       0.0647
     84 H29         0.1648   13.0475   40.2660 H           1 MOL       0.0584
     85 H30         0.9041   12.5132   41.7732 H           1 MOL       0.0584
     86 H31         3.1398   18.2721   41.3777 H           1 MOL       0.2101
     87 H32         3.9337   15.6802   38.7393 H           1 MOL       0.2100
     88 H33         2.2319   13.3814   39.4330 H           1 MOL       0.2095
     89 H34        -0.6746   18.5816   40.7359 H           1 MOL       0.0938
     90 H35        -2.5697   18.0671   39.6109 H           1 MOL       0.0671
     91 H36        -1.4296   15.5308   38.3729 H           1 MOL       0.0648
     92 H37        -1.7826   18.2590   37.0047 H           1 MOL       0.0647
     93 H38         0.8352   16.8531   37.7231 H           1 MOL       0.0647
     94 H39         0.3037   18.8873   35.7456 H           1 MOL       0.0584
     95 H40         1.8486   18.2124   36.2378 H           1 MOL       0.0584
     96 H41        -2.5912   16.9313   41.4315 H           1 MOL       0.2101
     97 H42        -3.2931   15.6610   37.1963 H           1 MOL       0.2100
     98 H43        -2.0215   16.6399   35.5970 H           1 MOL       0.2100
     99 H44         2.0843   19.7829   37.7247 H           1 MOL       0.2095
    100 H45         9.3190   15.3467   44.5010 H           1 MOL       0.0877
    101 H46         7.9900   13.6762   43.2526 H           1 MOL       0.0677
    102 H47         8.5657   14.1791   41.2519 H           1 MOL       0.2102
    103 H48         6.3814   16.0434   42.2061 H           1 MOL       0.0647
    104 H49         6.0601   13.2851   41.6584 H           1 MOL       0.2100
    105 H50         5.2546   13.6576   43.7203 H           1 MOL       0.0627
    106 H51         5.6451   16.3691   45.0628 H           1 MOL       0.0351
    107 H52         7.6135   15.6756   46.2799 H           1 MOL       0.0325
    108 H53         7.5813   14.0668   45.5877 H           1 MOL       0.0325
    109 H54         5.3278   15.1013   47.1760 H           1 MOL       0.0561
    110 H55         5.1476   13.5948   46.2734 H           1 MOL       0.0561
    111 H56         3.3069   14.3806   45.3592 H           1 MOL       0.2094
@<TRIPOS>BOND
     1     2     1   1
     2     1     7   1
     3    11     1   1
     4     3     2   1
     5     2     8   1
     6     4     3   1
     7     3     9   1
     8     4     5   1
     9    10     4   1
    10     5     6   1
    11     5    11   1
    12     6    12   1
    13    13    10   1
    14    14    13   1
    15    22    13   1
    16    15    14   1
    17    14    19   1
    18    16    15   1
    19    15    20   1
    20    16    17   1
    21    21    16   1
    22    17    18   1
    23    17    22   1
    24    45    21   1
    25    23    24   1
    26    23    32   1
    27    51    23   1
    28    24    25   1
    29    24    29   1
    30    25    26   1
    31    25    30   1
    32    27    26   1
    33    26    31   1
    34    27    28   1
    35    32    27   1
    36    28    33   1
    37    31    34   1
    38    34    35   1
    39    34    43   1
    40    35    36   1
    41    35    40   1
    42    36    37   1
    43    36    41   1
    44    38    37   1
    45    37    42   1
    46    38    39   1
    47    43    38   1
    48    39    44   1
    49    46    45   1
    50    45    53   1
    51    46    47   1
    52    48    46   1
    53    48    49   1
    54    50    48   1
    55    50    51   1
    56    50    52   1
    57    52    53   1
    58    52    54   1
    59    54    55   1
    60     1    56   1
    61     2    57   1
    62     3    58   1
    63     4    59   1
    64     5    60   1
    65     6    61   1
    66     6    62   1
    67     7    63   1
    68     8    64   1
    69     9    65   1
    70    12    66   1
    71    13    67   1
    72    14    68   1
    73    15    69   1
    74    16    70   1
    75    17    71   1
    76    18    72   1
    77    18    73   1
    78    18    74   1
    79    19    75   1
    80    20    76   1
    81    21    77   1
    82    21    78   1
    83    23    79   1
    84    24    80   1
    85    25    81   1
    86    26    82   1
    87    27    83   1
    88    28    84   1
    89    28    85   1
    90    29    86   1
    91    30    87   1
    92    33    88   1
    93    34    89   1
    94    35    90   1
    95    36    91   1
    96    37    92   1
    97    38    93   1
    98    39    94   1
    99    39    95   1
   100    40    96   1
   101    41    97   1
   102    42    98   1
   103    44    99   1
   104    45   100   1
   105    46   101   1
   106    47   102   1
   107    48   103   1
   108    49   104   1
   109    50   105   1
   110    52   106   1
   111    53   107   1
   112    53   108   1
   113    54   109   1
   114    54   110   1
   115    55   111   1
@<TRIPOS>SUBSTRUCTURE
     1  MOL      1

