@<TRIPOS>MOLECULE
1xd0_ligand_038
   111   115
SMALL
GAST_HUCK
****
This file was generated by PARSER (from files_GN.cpp)

@<TRIPOS>ATOM
      1 CR1        -4.4729   16.1101   40.2954 C.3         1 MOL       0.1854
      2 CR2        -3.8473   15.4375   41.5447 C.3         1 MOL       0.1339
      3 CR3        -2.4386   16.0164   41.8352 C.3         1 MOL       0.1144
      4 CR4        -1.5349   15.9409   40.5708 C.3         1 MOL       0.1184
      5 CR5        -2.2634   16.6468   39.3791 C.3         1 MOL       0.1134
      6 CR6        -1.5171   16.5748   38.0232 C.3         1 MOL       0.0730
      7 OR1        -4.8574   17.4642   40.5373 O.3         1 MOL      -0.3649
      8 OR2        -4.7110   15.5914   42.6669 O.3         1 MOL      -0.3841
      9 OR3        -1.8423   15.2961   42.9159 O.3         1 MOL      -0.3864
     10 OR4        -0.2736   16.5697   40.9100 O.3         1 MOL      -0.3401
     11 OR5        -3.5685   16.0527   39.1740 O.3         1 MOL      -0.3407
     12 OR6        -1.1351   15.2411   37.6888 O.3         1 MOL      -0.3924
     13 CV1         0.9524   15.9868   40.4141 C.3         1 MOL       0.1886
     14 CV2         1.4074   14.7222   41.2015 C.3         1 MOL       0.1370
     15 CV3         2.7772   14.2296   40.6582 C.3         1 MOL       0.1304
     16 CV4         3.8578   15.3602   40.6252 C.3         1 MOL       0.0334
     17 CV5         3.2769   16.6806   40.0094 C.3         1 MOL       0.1038
     18 CV6         3.3020   16.7256   38.4560 C.3         1 MOL      -0.0332
     19 OV2         1.4791   14.9851   42.6037 O.3         1 MOL      -0.3840
     20 OV3         2.6046   13.6726   39.3517 O.3         1 MOL      -0.3834
     21 NV4         4.4654   15.6410   41.9662 N.4         1 MOL       0.2370
     22 OV5         1.9677   17.0056   40.5298 O.3         1 MOL      -0.3401
     23 CQ1         9.7510   16.9159   44.9839 C.3         1 MOL       0.1883
     24 CQ2        10.4869   18.2773   45.0119 C.3         1 MOL       0.1341
     25 CQ3        11.2758   18.4604   43.6885 C.3         1 MOL       0.1144
     26 CQ4        12.2727   17.2811   43.4699 C.3         1 MOL       0.1184
     27 CQ5        11.5900   15.8901   43.7223 C.3         1 MOL       0.1134
     28 CQ6        12.6000   14.6922   43.8043 C.3         1 MOL       0.0730
     29 OQ2         9.5972   19.3551   45.2644 O.3         1 MOL      -0.3841
     30 OQ3        11.9828   19.7024   43.7079 O.3         1 MOL      -0.3864
     31 OQ4        12.7017   17.2772   42.0882 O.3         1 MOL      -0.3401
     32 OQ5        10.7423   15.8704   44.8937 O.3         1 MOL      -0.3405
     33 OQ6        13.9789   15.0759   43.7531 O.3         1 MOL      -0.3924
     34 CW1        13.8261   18.0837   41.6817 C.3         1 MOL       0.1884
     35 CW2        13.5460   18.6475   40.2657 C.3         1 MOL       0.1341
     36 CW3        13.5625   17.5181   39.1993 C.3         1 MOL       0.1141
     37 CW4        14.8551   16.6613   39.3187 C.3         1 MOL       0.1119
     38 CW5        15.0404   16.1631   40.7849 C.3         1 MOL       0.1130
     39 CW6        16.3426   15.3529   41.0063 C.3         1 MOL       0.0730
     40 OW2        12.3032   19.3476   40.2341 O.3         1 MOL      -0.3841
     41 OW3        13.4698   18.0758   37.8871 O.3         1 MOL      -0.3864
     42 OW4        14.8029   15.5631   38.4043 O.3         1 MOL      -0.3865
     43 OW5        15.0261   17.2828   41.7004 O.3         1 MOL      -0.3405
     44 OW6        17.4669   15.9337   40.3579 O.3         1 MOL      -0.3924
     45 CY1         5.2829   14.5887   42.6485 C.3         1 MOL       0.0073
     46 CY2         5.4709   14.9153   44.1669 C.3         1 MOL       0.1257
     47 OY2         4.2206   15.2814   44.7661 O.3         1 MOL      -0.3835
     48 CY3         6.5312   16.0195   44.4618 C.3         1 MOL       0.1127
     49 OY3         6.7240   16.0519   45.8750 O.3         1 MOL      -0.3864
     50 CY4         7.8926   15.7799   43.7290 C.3         1 MOL       0.0953
     51 OY4         8.7717   16.9127   43.9141 O.3         1 MOL      -0.3424
     52 CY5         7.6227   15.5818   42.1983 C.3         1 MOL       0.0162
     53 CY6         6.6763   14.3600   41.9935 C.3         1 MOL       0.0002
     54 CY7         8.8880   15.4446   41.3093 C.3         1 MOL       0.0497
     55 OY7         9.5973   14.2370   41.5680 O.3         1 MOL      -0.3946
     56 H1         -5.3745   15.5605   40.0171 H           1 MOL       0.0935
     57 H2         -3.7510   14.3655   41.3501 H           1 MOL       0.0671
     58 H3         -2.5375   17.0601   42.1477 H           1 MOL       0.0648
     59 H4         -1.4065   14.8828   40.3183 H           1 MOL       0.0651
     60 H5         -2.3849   17.7093   39.6182 H           1 MOL       0.0647
     61 H6         -0.6272   17.2043   38.0504 H           1 MOL       0.0584
     62 H7         -2.1657   16.9567   37.2297 H           1 MOL       0.0584
     63 H8         -5.6786   17.4193   41.0727 H           1 MOL       0.2126
     64 H9         -4.2087   15.2468   43.4359 H           1 MOL       0.2101
     65 H10        -1.0331   15.7985   43.1500 H           1 MOL       0.2100
     66 H11        -1.9783   14.7551   37.5657 H           1 MOL       0.2095
     67 H12         0.8221   15.7238   39.3613 H           1 MOL       0.0938
     68 H13         0.6745   13.9182   41.0723 H           1 MOL       0.0672
     69 H14         3.1075   13.3980   41.2801 H           1 MOL       0.0679
     70 H15         4.6555   15.0355   39.9613 H           1 MOL       0.0903
     71 H16         3.9199   17.5083   40.3235 H           1 MOL       0.0652
     72 H17         2.8133   17.6359   38.1025 H           1 MOL       0.0257
     73 H18         2.7858   15.8727   38.0163 H           1 MOL       0.0257
     74 H19         4.3328   16.7260   38.0898 H           1 MOL       0.0257
     75 H20         1.4193   15.9599   42.7013 H           1 MOL       0.2101
     76 H21         2.2514   12.7676   39.4951 H           1 MOL       0.2102
     77 H22         3.7121   15.9130   42.5982 H           1 MOL       0.2022
     78 H23         5.0696   16.4578   41.8625 H           1 MOL       0.2022
     79 H24         9.2566   16.7936   45.9468 H           1 MOL       0.0938
     80 H25        11.1990   18.2697   45.8423 H           1 MOL       0.0671
     81 H26        10.5746   18.4935   42.8480 H           1 MOL       0.0648
     82 H27        13.1176   17.4071   44.1660 H           1 MOL       0.0651
     83 H28        10.9336   15.6940   42.8655 H           1 MOL       0.0647
     84 H29        12.4178   13.9966   42.9682 H           1 MOL       0.0584
     85 H30        12.4404   14.1250   44.7320 H           1 MOL       0.0584
     86 H31         9.1589   19.5581   44.4086 H           1 MOL       0.2101
     87 H32        11.3545   20.3481   43.3205 H           1 MOL       0.2100
     88 H33        14.4275   14.5411   44.4486 H           1 MOL       0.2095
     89 H34        13.9865   18.9261   42.3566 H           1 MOL       0.0938
     90 H35        14.3276   19.3696   40.0253 H           1 MOL       0.0671
     91 H36        12.6910   16.8692   39.3450 H           1 MOL       0.0648
     92 H37        15.7106   17.2841   39.0380 H           1 MOL       0.0647
     93 H38        14.2130   15.4888   41.0314 H           1 MOL       0.0647
     94 H39        16.2194   14.3386   40.6202 H           1 MOL       0.0584
     95 H40        16.5527   15.2823   42.0751 H           1 MOL       0.0584
     96 H41        11.6129   18.6777   40.4283 H           1 MOL       0.2101
     97 H42        12.6275   18.5832   37.8701 H           1 MOL       0.2100
     98 H43        14.0359   15.0234   38.6899 H           1 MOL       0.2100
     99 H44        17.6985   16.7343   40.8732 H           1 MOL       0.2095
    100 H45         4.7397   13.6401   42.6159 H           1 MOL       0.0877
    101 H46         5.8042   14.0022   44.6749 H           1 MOL       0.0677
    102 H47         3.8506   14.4415   45.1168 H           1 MOL       0.2102
    103 H48         6.1331   16.9904   44.1525 H           1 MOL       0.0647
    104 H49         5.9689   16.5715   46.2300 H           1 MOL       0.2100
    105 H50         8.3643   14.8703   44.1168 H           1 MOL       0.0627
    106 H51         7.1149   16.4787   41.8308 H           1 MOL       0.0351
    107 H52         6.5592   14.1365   40.9349 H           1 MOL       0.0325
    108 H53         7.1282   13.4712   42.4390 H           1 MOL       0.0325
    109 H54         9.5596   16.2910   41.4695 H           1 MOL       0.0561
    110 H55         8.5947   15.4417   40.2529 H           1 MOL       0.0561
    111 H56        10.3501   14.2350   40.9364 H           1 MOL       0.2094
@<TRIPOS>BOND
     1     2     1   1
     2     1     7   1
     3    11     1   1
     4     3     2   1
     5     2     8   1
     6     4     3   1
     7     3     9   1
     8     4     5   1
     9    10     4   1
    10     5     6   1
    11     5    11   1
    12     6    12   1
    13    13    10   1
    14    14    13   1
    15    22    13   1
    16    15    14   1
    17    14    19   1
    18    16    15   1
    19    15    20   1
    20    16    17   1
    21    21    16   1
    22    17    18   1
    23    17    22   1
    24    45    21   1
    25    23    24   1
    26    23    32   1
    27    51    23   1
    28    24    25   1
    29    24    29   1
    30    25    26   1
    31    25    30   1
    32    27    26   1
    33    26    31   1
    34    27    28   1
    35    32    27   1
    36    28    33   1
    37    31    34   1
    38    34    35   1
    39    34    43   1
    40    35    36   1
    41    35    40   1
    42    36    37   1
    43    36    41   1
    44    38    37   1
    45    37    42   1
    46    38    39   1
    47    43    38   1
    48    39    44   1
    49    46    45   1
    50    45    53   1
    51    46    47   1
    52    48    46   1
    53    48    49   1
    54    50    48   1
    55    50    51   1
    56    50    52   1
    57    52    53   1
    58    52    54   1
    59    54    55   1
    60     1    56   1
    61     2    57   1
    62     3    58   1
    63     4    59   1
    64     5    60   1
    65     6    61   1
    66     6    62   1
    67     7    63   1
    68     8    64   1
    69     9    65   1
    70    12    66   1
    71    13    67   1
    72    14    68   1
    73    15    69   1
    74    16    70   1
    75    17    71   1
    76    18    72   1
    77    18    73   1
    78    18    74   1
    79    19    75   1
    80    20    76   1
    81    21    77   1
    82    21    78   1
    83    23    79   1
    84    24    80   1
    85    25    81   1
    86    26    82   1
    87    27    83   1
    88    28    84   1
    89    28    85   1
    90    29    86   1
    91    30    87   1
    92    33    88   1
    93    34    89   1
    94    35    90   1
    95    36    91   1
    96    37    92   1
    97    38    93   1
    98    39    94   1
    99    39    95   1
   100    40    96   1
   101    41    97   1
   102    42    98   1
   103    44    99   1
   104    45   100   1
   105    46   101   1
   106    47   102   1
   107    48   103   1
   108    49   104   1
   109    50   105   1
   110    52   106   1
   111    53   107   1
   112    53   108   1
   113    54   109   1
   114    54   110   1
   115    55   111   1
@<TRIPOS>SUBSTRUCTURE
     1  MOL      1

