@<TRIPOS>MOLECULE
1xd0_ligand_029
   111   115
SMALL
GAST_HUCK
****
This file was generated by PARSER (from files_GN.cpp)

@<TRIPOS>ATOM
      1 CR1        13.8053   17.6187   38.1928 C.3         1 MOL       0.1854
      2 CR2        12.4808   16.8295   38.3743 C.3         1 MOL       0.1339
      3 CR3        11.8394   17.1919   39.7369 C.3         1 MOL       0.1144
      4 CR4        12.8301   17.0285   40.9232 C.3         1 MOL       0.1184
      5 CR5        14.2186   17.6940   40.6103 C.3         1 MOL       0.1134
      6 CR6        15.3447   17.2912   41.6013 C.3         1 MOL       0.0730
      7 OR1        13.5552   19.0274   38.0577 O.3         1 MOL      -0.3649
      8 OR2        11.5756   17.0989   37.3037 O.3         1 MOL      -0.3841
      9 OR3        10.6863   16.3746   39.9345 O.3         1 MOL      -0.3864
     10 OR4        12.2792   17.4200   42.2129 O.3         1 MOL      -0.3401
     11 OR5        14.7070   17.3441   39.2918 O.3         1 MOL      -0.3407
     12 OR6        15.0034   16.2122   42.4777 O.3         1 MOL      -0.3924
     13 CV1        11.6358   18.7057   42.4289 C.3         1 MOL       0.1886
     14 CV2        11.3772   18.9609   43.9377 C.3         1 MOL       0.1370
     15 CV3        10.2729   18.0194   44.4960 C.3         1 MOL       0.1304
     16 CV4         8.9832   18.0092   43.6013 C.3         1 MOL       0.0334
     17 CV5         9.3670   17.8649   42.1018 C.3         1 MOL       0.1038
     18 CV6         8.1686   18.0644   41.1412 C.3         1 MOL      -0.0332
     19 OV2        12.5966   18.7993   44.6684 O.3         1 MOL      -0.3840
     20 OV3         9.9350   18.4821   45.8084 O.3         1 MOL      -0.3834
     21 NV4         7.8945   17.0937   44.0765 N.4         1 MOL       0.2370
     22 OV5        10.3810   18.8187   41.7143 O.3         1 MOL      -0.3401
     23 CQ1         3.1787   15.3605   42.1443 C.3         1 MOL       0.1883
     24 CQ2         1.6326   15.2094   42.2639 C.3         1 MOL       0.1341
     25 CQ3         0.8713   15.9119   41.0966 C.3         1 MOL       0.1144
     26 CQ4         1.4407   15.4648   39.7120 C.3         1 MOL       0.1184
     27 CQ5         2.9948   15.6571   39.6809 C.3         1 MOL       0.1134
     28 CQ6         3.4918   17.1172   39.4963 C.3         1 MOL       0.0730
     29 OQ2         1.2962   13.8178   42.2745 O.3         1 MOL      -0.3841
     30 OQ3         0.9145   17.3356   41.2483 O.3         1 MOL      -0.3864
     31 OQ4         1.2154   14.0539   39.4576 O.3         1 MOL      -0.3401
     32 OQ5         3.6087   14.9931   40.8121 O.3         1 MOL      -0.3405
     33 OQ6         4.9164   17.1723   39.5848 O.3         1 MOL      -0.3924
     34 CW1        -0.0772   13.5984   39.0235 C.3         1 MOL       0.1884
     35 CW2         0.0096   12.0669   38.8263 C.3         1 MOL       0.1341
     36 CW3        -1.3024   11.5103   38.2163 C.3         1 MOL       0.1141
     37 CW4        -1.7285   12.3142   36.9518 C.3         1 MOL       0.1119
     38 CW5        -1.7120   13.8561   37.1960 C.3         1 MOL       0.1130
     39 CW6        -2.9373   14.4377   37.9575 C.3         1 MOL       0.0730
     40 OW2         1.1216   11.7590   37.9859 O.3         1 MOL      -0.3841
     41 OW3        -2.3545   11.5353   39.1827 O.3         1 MOL      -0.3864
     42 OW4        -0.8323   12.0107   35.8795 O.3         1 MOL      -0.3865
     43 OW5        -0.4566   14.2665   37.7946 O.3         1 MOL      -0.3405
     44 OW6        -4.1194   14.4364   37.1636 O.3         1 MOL      -0.3924
     45 CY1         7.9838   15.5950   44.1012 C.3         1 MOL       0.0073
     46 CY2         7.6697   14.8080   42.7881 C.3         1 MOL       0.1257
     47 OY2         8.5561   15.1441   41.7253 O.3         1 MOL      -0.3835
     48 CY3         6.1800   14.9640   42.3536 C.3         1 MOL       0.1127
     49 OY3         5.9611   14.2341   41.1418 O.3         1 MOL      -0.3864
     50 CY4         5.1957   14.4685   43.4586 C.3         1 MOL       0.0953
     51 OY4         3.7926   14.4592   43.0916 O.3         1 MOL      -0.3424
     52 CY5         5.4831   15.1693   44.8295 C.3         1 MOL       0.0162
     53 CY6         7.0098   15.0713   45.2043 C.3         1 MOL       0.0002
     54 CY7         4.6282   14.5594   45.9887 C.3         1 MOL       0.0497
     55 OY7         3.3004   15.0815   46.0308 O.3         1 MOL      -0.3946
     56 H1         14.2952   17.2726   37.2723 H           1 MOL       0.0935
     57 H2         12.7105   15.7629   38.3560 H           1 MOL       0.0671
     58 H3         11.5059   18.2273   39.6817 H           1 MOL       0.0648
     59 H4         13.0273   15.9547   41.0232 H           1 MOL       0.0651
     60 H5         14.1227   18.7785   40.6541 H           1 MOL       0.0647
     61 H6         15.5872   18.1537   42.2381 H           1 MOL       0.0584
     62 H7         16.2660   17.0165   41.0603 H           1 MOL       0.0584
     63 H8         14.0424   19.2862   37.2499 H           1 MOL       0.2126
     64 H9         11.3970   18.0636   37.3446 H           1 MOL       0.2101
     65 H10        11.0133   15.4464   39.9651 H           1 MOL       0.2100
     66 H11        15.0939   15.4014   41.9344 H           1 MOL       0.2095
     67 H12        12.2799   19.5124   42.0740 H           1 MOL       0.0938
     68 H13        11.0487   20.0014   44.0542 H           1 MOL       0.0672
     69 H14        10.6957   17.0099   44.5663 H           1 MOL       0.0679
     70 H15         8.5534   19.0091   43.7079 H           1 MOL       0.0903
     71 H16         9.7666   16.8670   41.9487 H           1 MOL       0.0652
     72 H17         8.5119   17.9699   40.1114 H           1 MOL       0.0257
     73 H18         7.7298   19.0556   41.2756 H           1 MOL       0.0257
     74 H19         7.4075   17.3092   41.3162 H           1 MOL       0.0257
     75 H20        12.3638   18.2856   45.4678 H           1 MOL       0.2101
     76 H21        10.4904   17.9613   46.4257 H           1 MOL       0.2102
     77 H22         7.0473   17.3437   43.5638 H           1 MOL       0.2022
     78 H23         7.7414   17.3928   45.0440 H           1 MOL       0.2022
     79 H24         3.4632   16.3949   42.3771 H           1 MOL       0.0938
     80 H25         1.2999   15.6487   43.2082 H           1 MOL       0.0671
     81 H26        -0.1894   15.6410   41.1625 H           1 MOL       0.0648
     82 H27         0.9909   16.0651   38.9126 H           1 MOL       0.0651
     83 H28         3.3634   15.1158   38.7951 H           1 MOL       0.0647
     84 H29         3.0741   17.7812   40.2530 H           1 MOL       0.0584
     85 H30         3.1937   17.4760   38.5103 H           1 MOL       0.0584
     86 H31         0.3165   13.7847   42.1970 H           1 MOL       0.2101
     87 H32         0.2289   17.6620   40.6305 H           1 MOL       0.2100
     88 H33         5.1102   17.3302   40.5325 H           1 MOL       0.2095
     89 H34        -0.8167   13.8067   39.8022 H           1 MOL       0.0938
     90 H35         0.1854   11.5952   39.7959 H           1 MOL       0.0671
     91 H36        -1.1555   10.4636   37.9459 H           1 MOL       0.0648
     92 H37        -2.7214   11.9865   36.6317 H           1 MOL       0.0647
     93 H38        -1.7310   14.3311   36.2068 H           1 MOL       0.0647
     94 H39        -2.7226   15.4718   38.2249 H           1 MOL       0.0584
     95 H40        -3.1397   13.8906   38.8749 H           1 MOL       0.0584
     96 H41         1.0123   10.8169   37.7464 H           1 MOL       0.2101
     97 H42        -2.0468   10.9659   39.9211 H           1 MOL       0.2100
     98 H43        -1.0143   11.0801   35.6332 H           1 MOL       0.2100
     99 H44        -4.3959   13.4977   37.1095 H           1 MOL       0.2095
    100 H45         8.9834   15.3053   44.4187 H           1 MOL       0.0877
    101 H46         7.8356   13.7408   42.9799 H           1 MOL       0.0677
    102 H47         8.5361   14.3691   41.1100 H           1 MOL       0.2102
    103 H48         5.9862   16.0140   42.1422 H           1 MOL       0.0647
    104 H49         5.9126   13.2873   41.4159 H           1 MOL       0.2100
    105 H50         5.4208   13.4106   43.5952 H           1 MOL       0.0627
    106 H51         5.2297   16.2304   44.7432 H           1 MOL       0.0351
    107 H52         7.1947   15.6281   46.1326 H           1 MOL       0.0325
    108 H53         7.2565   14.0233   45.4157 H           1 MOL       0.0325
    109 H54         5.0776   14.7935   46.9542 H           1 MOL       0.0561
    110 H55         4.5841   13.4649   45.8888 H           1 MOL       0.0561
    111 H56         2.9941   15.1228   45.1046 H           1 MOL       0.2094
@<TRIPOS>BOND
     1     2     1   1
     2     1     7   1
     3    11     1   1
     4     3     2   1
     5     2     8   1
     6     4     3   1
     7     3     9   1
     8     4     5   1
     9    10     4   1
    10     5     6   1
    11     5    11   1
    12     6    12   1
    13    13    10   1
    14    14    13   1
    15    22    13   1
    16    15    14   1
    17    14    19   1
    18    16    15   1
    19    15    20   1
    20    16    17   1
    21    21    16   1
    22    17    18   1
    23    17    22   1
    24    45    21   1
    25    23    24   1
    26    23    32   1
    27    51    23   1
    28    24    25   1
    29    24    29   1
    30    25    26   1
    31    25    30   1
    32    27    26   1
    33    26    31   1
    34    27    28   1
    35    32    27   1
    36    28    33   1
    37    31    34   1
    38    34    35   1
    39    34    43   1
    40    35    36   1
    41    35    40   1
    42    36    37   1
    43    36    41   1
    44    38    37   1
    45    37    42   1
    46    38    39   1
    47    43    38   1
    48    39    44   1
    49    46    45   1
    50    45    53   1
    51    46    47   1
    52    48    46   1
    53    48    49   1
    54    50    48   1
    55    50    51   1
    56    50    52   1
    57    52    53   1
    58    52    54   1
    59    54    55   1
    60     1    56   1
    61     2    57   1
    62     3    58   1
    63     4    59   1
    64     5    60   1
    65     6    61   1
    66     6    62   1
    67     7    63   1
    68     8    64   1
    69     9    65   1
    70    12    66   1
    71    13    67   1
    72    14    68   1
    73    15    69   1
    74    16    70   1
    75    17    71   1
    76    18    72   1
    77    18    73   1
    78    18    74   1
    79    19    75   1
    80    20    76   1
    81    21    77   1
    82    21    78   1
    83    23    79   1
    84    24    80   1
    85    25    81   1
    86    26    82   1
    87    27    83   1
    88    28    84   1
    89    28    85   1
    90    29    86   1
    91    30    87   1
    92    33    88   1
    93    34    89   1
    94    35    90   1
    95    36    91   1
    96    37    92   1
    97    38    93   1
    98    39    94   1
    99    39    95   1
   100    40    96   1
   101    41    97   1
   102    42    98   1
   103    44    99   1
   104    45   100   1
   105    46   101   1
   106    47   102   1
   107    48   103   1
   108    49   104   1
   109    50   105   1
   110    52   106   1
   111    53   107   1
   112    53   108   1
   113    54   109   1
   114    54   110   1
   115    55   111   1
@<TRIPOS>SUBSTRUCTURE
     1  MOL      1

