@<TRIPOS>MOLECULE
1xd0_ligand_065
   111   115
SMALL
GAST_HUCK
****
This file was generated by PARSER (from files_GN.cpp)

@<TRIPOS>ATOM
      1 CR1         6.7635    9.7031   37.5453 C.3         1 MOL       0.1854
      2 CR2         7.3999   11.1005   37.7210 C.3         1 MOL       0.1339
      3 CR3         6.7166   12.1323   36.7847 C.3         1 MOL       0.1144
      4 CR4         5.1657   12.1147   36.9292 C.3         1 MOL       0.1184
      5 CR5         4.5729   10.6673   36.9314 C.3         1 MOL       0.1134
      6 CR6         4.2098   10.0911   35.5308 C.3         1 MOL       0.0730
      7 OR1         7.3340    8.8095   38.5000 O.3         1 MOL      -0.3649
      8 OR2         7.2703   11.5095   39.0829 O.3         1 MOL      -0.3841
      9 OR3         7.1147   11.8856   35.4368 O.3         1 MOL      -0.3864
     10 OR4         4.8285   12.7625   38.1862 O.3         1 MOL      -0.3401
     11 OR5         5.3358    9.7395   37.7371 O.3         1 MOL      -0.3407
     12 OR6         5.2268   10.2078   34.5406 O.3         1 MOL      -0.3924
     13 CV1         3.8629   13.8448   38.1860 C.3         1 MOL       0.1886
     14 CV2         4.4976   15.2179   37.8230 C.3         1 MOL       0.1370
     15 CV3         5.4963   15.6587   38.9266 C.3         1 MOL       0.1304
     16 CV4         4.8022   15.6818   40.3233 C.3         1 MOL       0.0334
     17 CV5         4.0467   14.3410   40.6034 C.3         1 MOL       0.1038
     18 CV6         3.0848   14.4436   41.8093 C.3         1 MOL      -0.0332
     19 OV2         5.1533   15.1847   36.5546 O.3         1 MOL      -0.3840
     20 OV3         6.0058   16.9594   38.6250 O.3         1 MOL      -0.3834
     21 NV4         5.7004   16.1801   41.4074 N.4         1 MOL       0.2370
     22 OV5         3.2280   13.9488   39.4766 O.3         1 MOL      -0.3401
     23 CQ1        11.7132   17.3212   41.5309 C.3         1 MOL       0.1883
     24 CQ2        12.4308   18.3090   40.5691 C.3         1 MOL       0.1341
     25 CQ3        13.9793   18.2272   40.7176 C.3         1 MOL       0.1144
     26 CQ4        14.4915   16.7520   40.6838 C.3         1 MOL       0.1184
     27 CQ5        13.6893   15.8490   41.6748 C.3         1 MOL       0.1134
     28 CQ6        14.0674   15.9896   43.1735 C.3         1 MOL       0.0730
     29 OQ2        12.0440   18.0128   39.2224 O.3         1 MOL      -0.3841
     30 OQ3        14.3927   18.8935   41.9129 O.3         1 MOL      -0.3864
     31 OQ4        14.2910   16.3028   39.3280 O.3         1 MOL      -0.3401
     32 OQ5        12.2781   15.9958   41.4271 O.3         1 MOL      -0.3405
     33 OQ6        13.1414   15.2827   43.9967 O.3         1 MOL      -0.3924
     34 CW1        14.8169   15.0418   38.8643 C.3         1 MOL       0.1884
     35 CW2        16.1135   15.2284   38.0375 C.3         1 MOL       0.1341
     36 CW3        15.8250   15.9472   36.6925 C.3         1 MOL       0.1141
     37 CW4        14.6664   15.2532   35.9217 C.3         1 MOL       0.1119
     38 CW5        13.4275   15.0796   36.8502 C.3         1 MOL       0.1130
     39 CW6        12.2743   14.2865   36.1812 C.3         1 MOL       0.0730
     40 OW2        17.0977   15.9345   38.7911 O.3         1 MOL      -0.3841
     41 OW3        17.0069   15.9419   35.8957 O.3         1 MOL      -0.3864
     42 OW4        14.3079   16.0188   34.7697 O.3         1 MOL      -0.3865
     43 OW5        13.8006   14.3939   38.0701 O.3         1 MOL      -0.3405
     44 OW6        12.7055   12.9947   35.7572 O.3         1 MOL      -0.3924
     45 CY1         6.6190   15.3257   42.2163 C.3         1 MOL       0.0073
     46 CY2         7.3312   16.2108   43.2901 C.3         1 MOL       0.1257
     47 OY2         6.3738   16.9689   44.0303 O.3         1 MOL      -0.3835
     48 CY3         8.4032   17.1507   42.6587 C.3         1 MOL       0.1127
     49 OY3         9.0750   17.8721   43.6877 O.3         1 MOL      -0.3864
     50 CY4         9.4435   16.3426   41.8225 C.3         1 MOL       0.0953
     51 OY4        10.3164   17.2868   41.1622 O.3         1 MOL      -0.3424
     52 CY5         8.7500   15.4503   40.7396 C.3         1 MOL       0.0162
     53 CY6         7.6826   14.5298   41.4086 C.3         1 MOL       0.0002
     54 CY7         9.7466   14.6161   39.8838 C.3         1 MOL       0.0497
     55 OY7        10.6062   13.8084   40.6863 O.3         1 MOL      -0.3946
     56 H1          7.0060    9.3122   36.5527 H           1 MOL       0.0935
     57 H2          8.4616   11.0348   37.4826 H           1 MOL       0.0671
     58 H3          7.0899   13.1291   37.0371 H           1 MOL       0.0648
     59 H4          4.7447   12.6687   36.0858 H           1 MOL       0.0651
     60 H5          3.6104   10.7328   37.4365 H           1 MOL       0.0647
     61 H6          3.3267   10.6116   35.1468 H           1 MOL       0.0584
     62 H7          3.9480    9.0316   35.6277 H           1 MOL       0.0584
     63 H8          7.1405    7.9066   38.1621 H           1 MOL       0.2126
     64 H9          8.0507   12.0818   39.2533 H           1 MOL       0.2101
     65 H10         6.7810   12.6478   34.9187 H           1 MOL       0.2100
     66 H11         5.7782    9.4035   34.6330 H           1 MOL       0.2095
     67 H12         3.0545   13.6294   37.4804 H           1 MOL       0.0938
     68 H13         3.6928   15.9631   37.7540 H           1 MOL       0.0672
     69 H14         6.3351   14.9600   38.9303 H           1 MOL       0.0679
     70 H15         4.0332   16.4567   40.2416 H           1 MOL       0.0903
     71 H16         4.7649   13.5423   40.8072 H           1 MOL       0.0652
     72 H17         2.4489   13.5493   41.8702 H           1 MOL       0.0257
     73 H18         2.4282   15.3158   41.7230 H           1 MOL       0.0257
     74 H19         3.6341   14.5249   42.7578 H           1 MOL       0.0257
     75 H20         4.4362   15.0194   35.9045 H           1 MOL       0.2101
     76 H21         6.3819   16.8834   37.7208 H           1 MOL       0.2102
     77 H22         5.0729   16.6277   42.0838 H           1 MOL       0.2022
     78 H23         6.2662   16.9295   40.9964 H           1 MOL       0.2022
     79 H24        11.7902   17.6808   42.5618 H           1 MOL       0.0938
     80 H25        12.0964   19.3291   40.7963 H           1 MOL       0.0671
     81 H26        14.4346   18.7806   39.8894 H           1 MOL       0.0648
     82 H27        15.5561   16.7373   40.9317 H           1 MOL       0.0651
     83 H28        13.9070   14.8083   41.4334 H           1 MOL       0.0647
     84 H29        14.0691   17.0315   43.4912 H           1 MOL       0.0584
     85 H30        15.0643   15.5779   43.3460 H           1 MOL       0.0584
     86 H31        11.7937   18.8639   38.7994 H           1 MOL       0.2101
     87 H32        15.3687   18.9759   41.8380 H           1 MOL       0.2100
     88 H33        13.3656   14.3354   43.8791 H           1 MOL       0.2095
     89 H34        15.0350   14.3676   39.6930 H           1 MOL       0.0938
     90 H35        16.5285   14.2390   37.8229 H           1 MOL       0.0671
     91 H36        15.5578   16.9895   36.8892 H           1 MOL       0.0648
     92 H37        15.0036   14.2673   35.5884 H           1 MOL       0.0647
     93 H38        13.0257   16.0699   37.0968 H           1 MOL       0.0647
     94 H39        11.8936   14.8346   35.3133 H           1 MOL       0.0584
     95 H40        11.4539   14.1681   36.8964 H           1 MOL       0.0584
     96 H41        16.7069   16.8155   38.9792 H           1 MOL       0.2101
     97 H42        16.7315   16.2692   35.0133 H           1 MOL       0.2100
     98 H43        14.7843   15.6029   34.0220 H           1 MOL       0.2100
     99 H44        11.8881   12.5392   35.4651 H           1 MOL       0.2095
    100 H45         6.0027   14.5959   42.7539 H           1 MOL       0.0877
    101 H46         7.8245   15.5442   43.9997 H           1 MOL       0.0677
    102 H47         6.8919   17.5516   44.6228 H           1 MOL       0.2102
    103 H48         7.9054   17.8713   42.0126 H           1 MOL       0.0647
    104 H49         8.9165   18.8192   43.4845 H           1 MOL       0.2100
    105 H50         9.9911   15.6881   42.5187 H           1 MOL       0.0627
    106 H51         8.2335   16.1222   40.0481 H           1 MOL       0.0351
    107 H52         7.1881   13.9107   40.6572 H           1 MOL       0.0325
    108 H53         8.1869   13.8508   42.0999 H           1 MOL       0.0325
    109 H54        10.3594   15.2775   39.2719 H           1 MOL       0.0561
    110 H55         9.1895   13.9607   39.2113 H           1 MOL       0.0561
    111 H56        11.1828   13.3240   40.0534 H           1 MOL       0.2094
@<TRIPOS>BOND
     1     2     1   1
     2     1     7   1
     3    11     1   1
     4     3     2   1
     5     2     8   1
     6     4     3   1
     7     3     9   1
     8     4     5   1
     9    10     4   1
    10     5     6   1
    11     5    11   1
    12     6    12   1
    13    13    10   1
    14    14    13   1
    15    22    13   1
    16    15    14   1
    17    14    19   1
    18    16    15   1
    19    15    20   1
    20    16    17   1
    21    21    16   1
    22    17    18   1
    23    17    22   1
    24    45    21   1
    25    23    24   1
    26    23    32   1
    27    51    23   1
    28    24    25   1
    29    24    29   1
    30    25    26   1
    31    25    30   1
    32    27    26   1
    33    26    31   1
    34    27    28   1
    35    32    27   1
    36    28    33   1
    37    31    34   1
    38    34    35   1
    39    34    43   1
    40    35    36   1
    41    35    40   1
    42    36    37   1
    43    36    41   1
    44    38    37   1
    45    37    42   1
    46    38    39   1
    47    43    38   1
    48    39    44   1
    49    46    45   1
    50    45    53   1
    51    46    47   1
    52    48    46   1
    53    48    49   1
    54    50    48   1
    55    50    51   1
    56    50    52   1
    57    52    53   1
    58    52    54   1
    59    54    55   1
    60     1    56   1
    61     2    57   1
    62     3    58   1
    63     4    59   1
    64     5    60   1
    65     6    61   1
    66     6    62   1
    67     7    63   1
    68     8    64   1
    69     9    65   1
    70    12    66   1
    71    13    67   1
    72    14    68   1
    73    15    69   1
    74    16    70   1
    75    17    71   1
    76    18    72   1
    77    18    73   1
    78    18    74   1
    79    19    75   1
    80    20    76   1
    81    21    77   1
    82    21    78   1
    83    23    79   1
    84    24    80   1
    85    25    81   1
    86    26    82   1
    87    27    83   1
    88    28    84   1
    89    28    85   1
    90    29    86   1
    91    30    87   1
    92    33    88   1
    93    34    89   1
    94    35    90   1
    95    36    91   1
    96    37    92   1
    97    38    93   1
    98    39    94   1
    99    39    95   1
   100    40    96   1
   101    41    97   1
   102    42    98   1
   103    44    99   1
   104    45   100   1
   105    46   101   1
   106    47   102   1
   107    48   103   1
   108    49   104   1
   109    50   105   1
   110    52   106   1
   111    53   107   1
   112    53   108   1
   113    54   109   1
   114    54   110   1
   115    55   111   1
@<TRIPOS>SUBSTRUCTURE
     1  MOL      1

