@<TRIPOS>MOLECULE
1xd0_ligand_018
   111   115
SMALL
GAST_HUCK
****
This file was generated by PARSER (from files_GN.cpp)

@<TRIPOS>ATOM
      1 CR1        12.5065   16.5685   38.6197 C.3         1 MOL       0.1854
      2 CR2        11.7976   15.4527   39.4504 C.3         1 MOL       0.1339
      3 CR3        12.6067   15.0893   40.7402 C.3         1 MOL       0.1144
      4 CR4        13.0410   16.3849   41.4997 C.3         1 MOL       0.1184
      5 CR5        13.8238   17.3465   40.5452 C.3         1 MOL       0.1134
      6 CR6        15.2568   16.9030   40.1018 C.3         1 MOL       0.0730
      7 OR1        11.6094   17.1015   37.6438 O.3         1 MOL      -0.3649
      8 OR2        10.4762   15.8747   39.8005 O.3         1 MOL      -0.3841
      9 OR3        13.7293   14.2572   40.4250 O.3         1 MOL      -0.3864
     10 OR4        11.7774   16.9152   41.9515 O.3         1 MOL      -0.3401
     11 OR5        12.9764   17.6721   39.4245 O.3         1 MOL      -0.3407
     12 OR6        16.1525   16.7851   41.2116 O.3         1 MOL      -0.3924
     13 CV1        11.4106   18.2963   42.1494 C.3         1 MOL       0.1886
     14 CV2        11.3146   18.7086   43.6391 C.3         1 MOL       0.1370
     15 CV3        10.1943   17.9135   44.3620 C.3         1 MOL       0.1304
     16 CV4         8.8394   17.9129   43.5811 C.3         1 MOL       0.0334
     17 CV5         9.0239   17.6946   42.0398 C.3         1 MOL       0.1038
     18 CV6         7.7809   18.1060   41.2125 C.3         1 MOL      -0.0332
     19 OV2        12.5644   18.5144   44.3166 O.3         1 MOL      -0.3840
     20 OV3         9.9793   18.5084   45.6498 O.3         1 MOL      -0.3834
     21 NV4         7.7733   17.0739   44.2016 N.4         1 MOL       0.2370
     22 OV5        10.1224   18.4910   41.5304 O.3         1 MOL      -0.3401
     23 CQ1         4.0328   15.3361   41.4266 C.3         1 MOL       0.1883
     24 CQ2         2.4809   15.3638   41.4109 C.3         1 MOL       0.1341
     25 CQ3         1.9045   14.1961   40.5652 C.3         1 MOL       0.1144
     26 CQ4         2.5067   14.2116   39.1367 C.3         1 MOL       0.1184
     27 CQ5         4.0658   14.2415   39.2218 C.3         1 MOL       0.1134
     28 CQ6         4.7514   14.4020   37.8404 C.3         1 MOL       0.0730
     29 OQ2         1.9674   15.2985   42.7360 O.3         1 MOL      -0.3841
     30 OQ3         0.4799   14.2812   40.4748 O.3         1 MOL      -0.3864
     31 OQ4         2.0870   13.0102   38.4538 O.3         1 MOL      -0.3401
     32 OQ5         4.5335   15.3164   40.0692 O.3         1 MOL      -0.3405
     33 OQ6         4.3612   15.6079   37.1837 O.3         1 MOL      -0.3924
     34 CW1         1.3180   13.1111   37.2287 C.3         1 MOL       0.1884
     35 CW2        -0.1697   12.7202   37.4316 C.3         1 MOL       0.1341
     36 CW3        -0.2763   11.2277   37.8578 C.3         1 MOL       0.1141
     37 CW4         0.4476   10.3142   36.8289 C.3         1 MOL       0.1119
     38 CW5         1.8878   10.8308   36.5322 C.3         1 MOL       0.1130
     39 CW6         2.5626   10.1086   35.3439 C.3         1 MOL       0.0730
     40 OW2        -0.7919   13.5847   38.3795 O.3         1 MOL      -0.3841
     41 OW3        -1.6439   10.8210   37.9630 O.3         1 MOL      -0.3864
     42 OW4         0.4886    8.9805   37.3406 O.3         1 MOL      -0.3865
     43 OW5         1.8970   12.2467   36.2310 O.3         1 MOL      -0.3405
     44 OW6         1.7449   10.1559   34.1772 O.3         1 MOL      -0.3924
     45 CY1         7.9118   15.6365   44.5686 C.3         1 MOL       0.0073
     46 CY2         8.1440   14.6164   43.4124 C.3         1 MOL       0.1257
     47 OY2         9.4023   14.8041   42.7877 O.3         1 MOL      -0.3835
     48 CY3         6.9681   14.6151   42.3950 C.3         1 MOL       0.1127
     49 OY3         7.2449   13.6439   41.3895 O.3         1 MOL      -0.3864
     50 CY4         5.6219   14.2743   43.1010 C.3         1 MOL       0.0953
     51 OY4         4.4913   14.1989   42.1980 O.3         1 MOL      -0.3424
     52 CY5         5.3522   15.1560   44.3778 C.3         1 MOL       0.0162
     53 CY6         6.6067   15.2221   45.3156 C.3         1 MOL       0.0002
     54 CY7         4.1059   14.6620   45.1671 C.3         1 MOL       0.0497
     55 OY7         4.1035   15.0417   46.5467 O.3         1 MOL      -0.3946
     56 H1         13.3458   16.1283   38.0725 H           1 MOL       0.0935
     57 H2         11.6819   14.5584   38.8209 H           1 MOL       0.0671
     58 H3         11.9657   14.4837   41.3952 H           1 MOL       0.0648
     59 H4         13.6510   16.1238   42.3665 H           1 MOL       0.0651
     60 H5         13.9876   18.2834   41.0838 H           1 MOL       0.0647
     61 H6         15.6559   17.6303   39.3896 H           1 MOL       0.0584
     62 H7         15.2290   15.9416   39.5968 H           1 MOL       0.0584
     63 H8         11.6209   18.0825   37.7678 H           1 MOL       0.2126
     64 H9          9.9681   15.0412   39.9128 H           1 MOL       0.2101
     65 H10        13.3407   13.4318   40.0732 H           1 MOL       0.2100
     66 H11        16.7815   17.5313   41.1340 H           1 MOL       0.2095
     67 H12        12.1007   18.9684   41.6342 H           1 MOL       0.0938
     68 H13        11.0710   19.7758   43.6782 H           1 MOL       0.0672
     69 H14        10.5416   16.8903   44.4947 H           1 MOL       0.0679
     70 H15         8.4533   18.9292   43.6795 H           1 MOL       0.0903
     71 H16         9.2116   16.6642   41.7999 H           1 MOL       0.0652
     72 H17         7.9359   17.8274   40.1717 H           1 MOL       0.0257
     73 H18         7.6319   19.1845   41.2540 H           1 MOL       0.0257
     74 H19         6.8790   17.6144   41.5737 H           1 MOL       0.0257
     75 H20        12.9384   19.4152   44.4345 H           1 MOL       0.2101
     76 H21        10.5682   18.0321   46.2671 H           1 MOL       0.2102
     77 H22         6.9417   17.1621   43.6209 H           1 MOL       0.2022
     78 H23         7.5666   17.5410   45.0847 H           1 MOL       0.2022
     79 H24         4.3651   16.2734   41.8767 H           1 MOL       0.0938
     80 H25         2.1428   16.3047   40.9706 H           1 MOL       0.0671
     81 H26         2.1534   13.2475   41.0479 H           1 MOL       0.0648
     82 H27         2.1606   15.1178   38.6295 H           1 MOL       0.0651
     83 H28         4.4055   13.2894   39.6383 H           1 MOL       0.0647
     84 H29         4.5021   13.5571   37.1978 H           1 MOL       0.0584
     85 H30         5.8381   14.4143   37.9668 H           1 MOL       0.0584
     86 H31         2.0403   16.2153   43.0735 H           1 MOL       0.2101
     87 H32         0.1110   13.7202   41.1865 H           1 MOL       0.2100
     88 H33         4.7356   16.3303   37.7313 H           1 MOL       0.2095
     89 H34         1.3612   14.1207   36.8132 H           1 MOL       0.0938
     90 H35        -0.6927   12.8516   36.4769 H           1 MOL       0.0671
     91 H36         0.1850   11.1010   38.8415 H           1 MOL       0.0648
     92 H37        -0.1367   10.3093   35.9034 H           1 MOL       0.0647
     93 H38         2.5152   10.6552   37.4069 H           1 MOL       0.0647
     94 H39         2.7637    9.0675   35.5962 H           1 MOL       0.0584
     95 H40         3.5144   10.5946   35.1135 H           1 MOL       0.0584
     96 H41        -1.7486   13.3684   38.3414 H           1 MOL       0.2101
     97 H42        -1.9397   11.1276   38.8481 H           1 MOL       0.2100
     98 H43         0.8044    8.4292   36.5967 H           1 MOL       0.2100
     99 H44         2.2512    9.6735   33.4908 H           1 MOL       0.2095
    100 H45         8.7323   15.5350   45.2840 H           1 MOL       0.0877
    101 H46         8.2035   13.6176   43.8538 H           1 MOL       0.0677
    102 H47         9.3631   14.3043   41.9508 H           1 MOL       0.2102
    103 H48         6.8992   15.5848   41.9090 H           1 MOL       0.0647
    104 H49         6.5505   13.7502   40.7164 H           1 MOL       0.2100
    105 H50         5.7295   13.2439   43.4617 H           1 MOL       0.0627
    106 H51         5.1406   16.1763   44.0545 H           1 MOL       0.0351
    107 H52         6.4248   15.9467   46.1211 H           1 MOL       0.0325
    108 H53         6.7573   14.2479   45.7954 H           1 MOL       0.0325
    109 H54         4.0218   13.5704   45.1058 H           1 MOL       0.0561
    110 H55         3.2064   15.0922   44.7271 H           1 MOL       0.0561
    111 H56         4.7995   14.4893   46.9574 H           1 MOL       0.2094
@<TRIPOS>BOND
     1     2     1   1
     2     1     7   1
     3    11     1   1
     4     3     2   1
     5     2     8   1
     6     4     3   1
     7     3     9   1
     8     4     5   1
     9    10     4   1
    10     5     6   1
    11     5    11   1
    12     6    12   1
    13    13    10   1
    14    14    13   1
    15    22    13   1
    16    15    14   1
    17    14    19   1
    18    16    15   1
    19    15    20   1
    20    16    17   1
    21    21    16   1
    22    17    18   1
    23    17    22   1
    24    45    21   1
    25    23    24   1
    26    23    32   1
    27    51    23   1
    28    24    25   1
    29    24    29   1
    30    25    26   1
    31    25    30   1
    32    27    26   1
    33    26    31   1
    34    27    28   1
    35    32    27   1
    36    28    33   1
    37    31    34   1
    38    34    35   1
    39    34    43   1
    40    35    36   1
    41    35    40   1
    42    36    37   1
    43    36    41   1
    44    38    37   1
    45    37    42   1
    46    38    39   1
    47    43    38   1
    48    39    44   1
    49    46    45   1
    50    45    53   1
    51    46    47   1
    52    48    46   1
    53    48    49   1
    54    50    48   1
    55    50    51   1
    56    50    52   1
    57    52    53   1
    58    52    54   1
    59    54    55   1
    60     1    56   1
    61     2    57   1
    62     3    58   1
    63     4    59   1
    64     5    60   1
    65     6    61   1
    66     6    62   1
    67     7    63   1
    68     8    64   1
    69     9    65   1
    70    12    66   1
    71    13    67   1
    72    14    68   1
    73    15    69   1
    74    16    70   1
    75    17    71   1
    76    18    72   1
    77    18    73   1
    78    18    74   1
    79    19    75   1
    80    20    76   1
    81    21    77   1
    82    21    78   1
    83    23    79   1
    84    24    80   1
    85    25    81   1
    86    26    82   1
    87    27    83   1
    88    28    84   1
    89    28    85   1
    90    29    86   1
    91    30    87   1
    92    33    88   1
    93    34    89   1
    94    35    90   1
    95    36    91   1
    96    37    92   1
    97    38    93   1
    98    39    94   1
    99    39    95   1
   100    40    96   1
   101    41    97   1
   102    42    98   1
   103    44    99   1
   104    45   100   1
   105    46   101   1
   106    47   102   1
   107    48   103   1
   108    49   104   1
   109    50   105   1
   110    52   106   1
   111    53   107   1
   112    53   108   1
   113    54   109   1
   114    54   110   1
   115    55   111   1
@<TRIPOS>SUBSTRUCTURE
     1  MOL      1

