@<TRIPOS>MOLECULE
1xd0_ligand_043
   111   115
SMALL
GAST_HUCK
****
This file was generated by PARSER (from files_GN.cpp)

@<TRIPOS>ATOM
      1 CR1         8.9654   19.4951   31.1193 C.3         1 MOL       0.1854
      2 CR2        10.4018   19.9964   30.8222 C.3         1 MOL       0.1339
      3 CR3        11.4478   19.2197   31.6644 C.3         1 MOL       0.1144
      4 CR4        11.0644   19.1628   33.1817 C.3         1 MOL       0.1184
      5 CR5         9.5592   18.7996   33.3914 C.3         1 MOL       0.1134
      6 CR6         9.0957   19.0882   34.8440 C.3         1 MOL       0.0730
      7 OR1         8.7353   18.1723   30.6321 O.3         1 MOL      -0.3649
      8 OR2        10.7047   19.8681   29.4332 O.3         1 MOL      -0.3841
      9 OR3        12.7342   19.8254   31.5113 O.3         1 MOL      -0.3864
     10 OR4        11.9497   18.3586   34.0054 O.3         1 MOL      -0.3401
     11 OR5         8.6911   19.5689   32.5314 O.3         1 MOL      -0.3407
     12 OR6         7.7830   18.5760   35.0507 O.3         1 MOL      -0.3924
     13 CV1        12.1427   16.9341   33.8013 C.3         1 MOL       0.1886
     14 CV2        11.4788   16.0339   34.8795 C.3         1 MOL       0.1370
     15 CV3        12.1465   16.2422   36.2627 C.3         1 MOL       0.1304
     16 CV4        13.6853   16.0042   36.1641 C.3         1 MOL       0.0334
     17 CV5        14.3031   16.8555   35.0066 C.3         1 MOL       0.1038
     18 CV6        15.7692   16.4632   34.6916 C.3         1 MOL      -0.0332
     19 OV2        10.0739   16.2403   34.9781 O.3         1 MOL      -0.3840
     20 OV3        11.5665   15.3536   37.2228 O.3         1 MOL      -0.3834
     21 NV4        14.3542   16.0481   37.4974 N.4         1 MOL       0.2370
     22 OV5        13.5620   16.6691   33.7714 O.3         1 MOL      -0.3401
     23 CQ1        13.6528   16.7312   43.4883 C.3         1 MOL       0.1883
     24 CQ2        13.4274   15.5296   44.4347 C.3         1 MOL       0.1341
     25 CQ3        11.9337   15.1135   44.4570 C.3         1 MOL       0.1144
     26 CQ4        10.9446   16.2961   44.6933 C.3         1 MOL       0.1184
     27 CQ5        11.3641   17.5306   43.8147 C.3         1 MOL       0.1134
     28 CQ6        10.6944   18.8982   44.1523 C.3         1 MOL       0.0730
     29 OQ2        14.2506   14.4296   44.0422 O.3         1 MOL      -0.3841
     30 OQ3        11.7446   14.1278   45.4674 O.3         1 MOL      -0.3864
     31 OQ4         9.6431   15.6995   44.4542 O.3         1 MOL      -0.3401
     32 OQ5        12.7897   17.7993   43.8958 O.3         1 MOL      -0.3405
     33 OQ6        10.6926   19.2264   45.5437 O.3         1 MOL      -0.3924
     34 CW1         8.4715   16.4828   44.1514 C.3         1 MOL       0.1884
     35 CW2         7.1733   15.6523   44.3783 C.3         1 MOL       0.1341
     36 CW3         7.0448   14.5164   43.3295 C.3         1 MOL       0.1141
     37 CW4         7.2654   15.0170   41.8718 C.3         1 MOL       0.1119
     38 CW5         8.5324   15.9179   41.7793 C.3         1 MOL       0.1130
     39 CW6         8.6920   16.5857   40.3750 C.3         1 MOL       0.0730
     40 OW2         7.1405   15.1244   45.7052 O.3         1 MOL      -0.3841
     41 OW3         5.7394   13.9475   43.4011 O.3         1 MOL      -0.3864
     42 OW4         7.3928   13.9024   40.9811 O.3         1 MOL      -0.3865
     43 OW5         8.4958   16.9663   42.7887 O.3         1 MOL      -0.3405
     44 OW6         9.8655   16.1142   39.6871 O.3         1 MOL      -0.3924
     45 CY1        14.8793   17.2904   38.1319 C.3         1 MOL       0.0073
     46 CY2        15.9219   16.8916   39.2243 C.3         1 MOL       0.1257
     47 OY2        16.9112   15.9962   38.7119 O.3         1 MOL      -0.3835
     48 CY3        15.2459   16.2568   40.4748 C.3         1 MOL       0.1127
     49 OY3        16.2503   15.9920   41.4597 O.3         1 MOL      -0.3864
     50 CY4        14.1276   17.1530   41.0759 C.3         1 MOL       0.0953
     51 OY4        13.4463   16.3806   42.0961 O.3         1 MOL      -0.3424
     52 CY5        13.0896   17.6317   39.9982 C.3         1 MOL       0.0162
     53 CY6        13.8292   18.2448   38.7664 C.3         1 MOL       0.0002
     54 CY7        12.0472   18.6161   40.6132 C.3         1 MOL       0.0497
     55 OY7        11.8697   19.8463   39.9128 O.3         1 MOL      -0.3946
     56 H1          8.2527   20.1547   30.6205 H           1 MOL       0.0935
     57 H2         10.4531   21.0571   31.0773 H           1 MOL       0.0671
     58 H3         11.5139   18.2080   31.2627 H           1 MOL       0.0648
     59 H4         11.1879   20.1851   33.5501 H           1 MOL       0.0651
     60 H5          9.4168   17.7371   33.1817 H           1 MOL       0.0647
     61 H6          9.0853   20.1658   35.0273 H           1 MOL       0.0584
     62 H7          9.7674   18.6268   35.5678 H           1 MOL       0.0584
     63 H8          8.8076   18.2408   29.6558 H           1 MOL       0.2126
     64 H9         10.1243   20.5114   28.9776 H           1 MOL       0.2101
     65 H10        12.6101   20.7714   31.7511 H           1 MOL       0.2100
     66 H11         7.4342   19.0722   35.8202 H           1 MOL       0.2095
     67 H12        11.7471   16.6124   32.8389 H           1 MOL       0.0938
     68 H13        11.6215   14.9905   34.5889 H           1 MOL       0.0672
     69 H14        11.9383   17.2604   36.5942 H           1 MOL       0.0679
     70 H15        13.7926   14.9605   35.8558 H           1 MOL       0.0903
     71 H16        14.2759   17.9164   35.2772 H           1 MOL       0.0652
     72 H17        16.1579   17.1033   33.9009 H           1 MOL       0.0257
     73 H18        15.8169   15.4270   34.3565 H           1 MOL       0.0257
     74 H19        16.4061   16.5736   35.5660 H           1 MOL       0.0257
     75 H20         9.6839   15.7486   34.2248 H           1 MOL       0.2101
     76 H21        11.7585   14.4522   36.8875 H           1 MOL       0.2102
     77 H22        15.1567   15.4238   37.4066 H           1 MOL       0.2022
     78 H23        13.7211   15.6121   38.1679 H           1 MOL       0.2022
     79 H24        14.6756   17.0670   43.6509 H           1 MOL       0.0938
     80 H25        13.7247   15.8182   45.4474 H           1 MOL       0.0671
     81 H26        11.7022   14.6488   43.4954 H           1 MOL       0.0648
     82 H27        10.9937   16.5840   45.7477 H           1 MOL       0.0651
     83 H28        11.1071   17.2961   42.7807 H           1 MOL       0.0647
     84 H29         9.6514   18.9062   43.8086 H           1 MOL       0.0584
     85 H30        11.2072   19.7092   43.6129 H           1 MOL       0.0584
     86 H31        15.1787   14.6988   44.2403 H           1 MOL       0.2101
     87 H32        12.1297   14.5186   46.2830 H           1 MOL       0.2100
     88 H33        11.3211   18.6115   45.9666 H           1 MOL       0.2095
     89 H34         8.4233   17.3401   44.8292 H           1 MOL       0.0938
     90 H35         6.3199   16.3306   44.2753 H           1 MOL       0.0671
     91 H36         7.7804   13.7399   43.5454 H           1 MOL       0.0648
     92 H37         6.3928   15.6125   41.5768 H           1 MOL       0.0647
     93 H38         9.4227   15.3036   41.9438 H           1 MOL       0.0647
     94 H39         8.7905   17.6793   40.4756 H           1 MOL       0.0584
     95 H40         7.8163   16.3895   39.7278 H           1 MOL       0.0584
     96 H41         7.9705   14.6048   45.8046 H           1 MOL       0.2101
     97 H42         5.7787   13.3177   44.1459 H           1 MOL       0.2100
     98 H43         6.6768   13.2814   41.2316 H           1 MOL       0.2100
     99 H44         9.6646   15.1690   39.4953 H           1 MOL       0.2095
    100 H45        15.4221   17.8619   37.3756 H           1 MOL       0.0877
    101 H46        16.4592   17.7912   39.5426 H           1 MOL       0.0677
    102 H47        16.9048   16.1225   37.7425 H           1 MOL       0.2102
    103 H48        14.8131   15.2916   40.1900 H           1 MOL       0.0647
    104 H49        16.8358   16.7817   41.4574 H           1 MOL       0.2100
    105 H50        14.6038   18.0502   41.4873 H           1 MOL       0.0627
    106 H51        12.5432   16.7571   39.6402 H           1 MOL       0.0351
    107 H52        13.1175   18.5429   37.9962 H           1 MOL       0.0325
    108 H53        14.3283   19.1638   39.0877 H           1 MOL       0.0325
    109 H54        12.3092   18.8872   41.6401 H           1 MOL       0.0561
    110 H55        11.0666   18.1382   40.6331 H           1 MOL       0.0561
    111 H56        11.5165   19.6019   39.0342 H           1 MOL       0.2094
@<TRIPOS>BOND
     1     2     1   1
     2     1     7   1
     3    11     1   1
     4     3     2   1
     5     2     8   1
     6     4     3   1
     7     3     9   1
     8     4     5   1
     9    10     4   1
    10     5     6   1
    11     5    11   1
    12     6    12   1
    13    13    10   1
    14    14    13   1
    15    22    13   1
    16    15    14   1
    17    14    19   1
    18    16    15   1
    19    15    20   1
    20    16    17   1
    21    21    16   1
    22    17    18   1
    23    17    22   1
    24    45    21   1
    25    23    24   1
    26    23    32   1
    27    51    23   1
    28    24    25   1
    29    24    29   1
    30    25    26   1
    31    25    30   1
    32    27    26   1
    33    26    31   1
    34    27    28   1
    35    32    27   1
    36    28    33   1
    37    31    34   1
    38    34    35   1
    39    34    43   1
    40    35    36   1
    41    35    40   1
    42    36    37   1
    43    36    41   1
    44    38    37   1
    45    37    42   1
    46    38    39   1
    47    43    38   1
    48    39    44   1
    49    46    45   1
    50    45    53   1
    51    46    47   1
    52    48    46   1
    53    48    49   1
    54    50    48   1
    55    50    51   1
    56    50    52   1
    57    52    53   1
    58    52    54   1
    59    54    55   1
    60     1    56   1
    61     2    57   1
    62     3    58   1
    63     4    59   1
    64     5    60   1
    65     6    61   1
    66     6    62   1
    67     7    63   1
    68     8    64   1
    69     9    65   1
    70    12    66   1
    71    13    67   1
    72    14    68   1
    73    15    69   1
    74    16    70   1
    75    17    71   1
    76    18    72   1
    77    18    73   1
    78    18    74   1
    79    19    75   1
    80    20    76   1
    81    21    77   1
    82    21    78   1
    83    23    79   1
    84    24    80   1
    85    25    81   1
    86    26    82   1
    87    27    83   1
    88    28    84   1
    89    28    85   1
    90    29    86   1
    91    30    87   1
    92    33    88   1
    93    34    89   1
    94    35    90   1
    95    36    91   1
    96    37    92   1
    97    38    93   1
    98    39    94   1
    99    39    95   1
   100    40    96   1
   101    41    97   1
   102    42    98   1
   103    44    99   1
   104    45   100   1
   105    46   101   1
   106    47   102   1
   107    48   103   1
   108    49   104   1
   109    50   105   1
   110    52   106   1
   111    53   107   1
   112    53   108   1
   113    54   109   1
   114    54   110   1
   115    55   111   1
@<TRIPOS>SUBSTRUCTURE
     1  MOL      1

