@<TRIPOS>MOLECULE
1xd0_ligand_063
   111   115
SMALL
GAST_HUCK
****
This file was generated by PARSER (from files_GN.cpp)

@<TRIPOS>ATOM
      1 CR1         7.7923    8.6325   34.1310 C.3         1 MOL       0.1854
      2 CR2         8.6253    8.5506   35.4412 C.3         1 MOL       0.1339
      3 CR3         9.5722    7.3076   35.4282 C.3         1 MOL       0.1144
      4 CR4        10.4428    7.2636   34.1240 C.3         1 MOL       0.1184
      5 CR5         9.5282    7.4117   32.8504 C.3         1 MOL       0.1134
      6 CR6         8.8632    6.0963   32.3400 C.3         1 MOL       0.0730
      7 OR1         7.1108    9.8858   34.0744 O.3         1 MOL      -0.3649
      8 OR2         9.3745    9.7614   35.6024 O.3         1 MOL      -0.3841
      9 OR3         8.8047    6.1101   35.5649 O.3         1 MOL      -0.3864
     10 OR4        11.4563    8.2842   34.3320 O.3         1 MOL      -0.3401
     11 OR5         8.6203    8.5372   32.9473 O.3         1 MOL      -0.3407
     12 OR6         7.6671    5.7063   33.0211 O.3         1 MOL      -0.3924
     13 CV1        12.1931    8.9434   33.2754 C.3         1 MOL       0.1886
     14 CV2        13.7386    8.8339   33.4446 C.3         1 MOL       0.1370
     15 CV3        14.2685    9.7198   34.6082 C.3         1 MOL       0.1304
     16 CV4        13.6853   11.1731   34.5544 C.3         1 MOL       0.0334
     17 CV5        12.1241   11.0665   34.4666 C.3         1 MOL       0.1038
     18 CV6        11.3677   12.4169   34.3968 C.3         1 MOL      -0.0332
     19 OV2        14.0798    7.4585   33.6397 O.3         1 MOL      -0.3840
     20 OV3        15.6918    9.7340   34.5378 O.3         1 MOL      -0.3834
     21 NV4        14.1302   11.9501   35.7552 N.4         1 MOL       0.2370
     22 OV5        11.7594   10.3242   33.2736 O.3         1 MOL      -0.3401
     23 CQ1        13.0397   17.3896   37.5845 C.3         1 MOL       0.1883
     24 CQ2        13.6401   18.2937   38.6991 C.3         1 MOL       0.1341
     25 CQ3        12.9750   18.0653   40.0852 C.3         1 MOL       0.1144
     26 CQ4        11.4204   18.0580   39.9788 C.3         1 MOL       0.1184
     27 CQ5        10.9715   17.0645   38.8665 C.3         1 MOL       0.1134
     28 CQ6         9.4354   17.0345   38.6459 C.3         1 MOL       0.0730
     29 OQ2        15.0514   18.1021   38.7907 O.3         1 MOL      -0.3841
     30 OQ3        13.3889   19.0912   40.9919 O.3         1 MOL      -0.3864
     31 OQ4        10.6854   17.8331   41.2068 O.3         1 MOL      -0.3401
     32 OQ5        11.5984   17.4016   37.6052 O.3         1 MOL      -0.3405
     33 OQ6         8.9009   18.3381   38.4224 O.3         1 MOL      -0.3924
     34 CW1        11.0863   16.8119   42.1511 C.3         1 MOL       0.1884
     35 CW2         9.8578   16.2016   42.8782 C.3         1 MOL       0.1341
     36 CW3         9.1891   17.2426   43.8078 C.3         1 MOL       0.1141
     37 CW4        10.2241   17.9285   44.7445 C.3         1 MOL       0.1119
     38 CW5        11.4785   18.4167   43.9576 C.3         1 MOL       0.1130
     39 CW6        12.6188   18.8947   44.8942 C.3         1 MOL       0.0730
     40 OW2         8.9224   15.7002   41.9219 O.3         1 MOL      -0.3841
     41 OW3         8.1951   16.5781   44.5854 O.3         1 MOL      -0.3864
     42 OW4         9.5996   19.0329   45.4014 O.3         1 MOL      -0.3865
     43 OW5        12.0082   17.3521   43.1286 O.3         1 MOL      -0.3405
     44 OW6        12.1866   19.8493   45.8640 O.3         1 MOL      -0.3924
     45 CY1        15.3625   12.8033   35.6233 C.3         1 MOL       0.0073
     46 CY2        15.9136   13.2500   37.0111 C.3         1 MOL       0.1257
     47 OY2        16.2187   12.0984   37.7992 O.3         1 MOL      -0.3835
     48 CY3        14.9095   14.1907   37.7388 C.3         1 MOL       0.1127
     49 OY3        15.4555   14.5938   38.9967 O.3         1 MOL      -0.3864
     50 CY4        14.5222   15.4580   36.9030 C.3         1 MOL       0.0953
     51 OY4        13.4190   16.0018   37.6656 O.3         1 MOL      -0.3424
     52 CY5        14.1026   15.0789   35.4299 C.3         1 MOL       0.0162
     53 CY6        15.1146   14.0810   34.7702 C.3         1 MOL       0.0002
     54 CY7        13.8512   16.2794   34.4678 C.3         1 MOL       0.0497
     55 OY7        14.7718   17.3505   34.6672 O.3         1 MOL      -0.3946
     56 H1          7.0265    7.8479   34.1455 H           1 MOL       0.0935
     57 H2          7.9411    8.4669   36.2987 H           1 MOL       0.0671
     58 H3         10.2375    7.3517   36.3047 H           1 MOL       0.0648
     59 H4         10.9706    6.2993   34.0837 H           1 MOL       0.0651
     60 H5         10.1739    7.7002   32.0207 H           1 MOL       0.0647
     61 H6          9.5812    5.2776   32.4341 H           1 MOL       0.0584
     62 H7          8.6202    6.2132   31.2809 H           1 MOL       0.0584
     63 H8          6.7782    9.9399   33.1624 H           1 MOL       0.2126
     64 H9          9.7001    9.7391   36.5333 H           1 MOL       0.2101
     65 H10         8.1124    6.3302   36.2168 H           1 MOL       0.2100
     66 H11         6.9498    6.1960   32.5578 H           1 MOL       0.2095
     67 H12        11.9610    8.5280   32.3018 H           1 MOL       0.0938
     68 H13        14.1960    9.1645   32.5007 H           1 MOL       0.0672
     69 H14        13.9768    9.2450   35.5526 H           1 MOL       0.0679
     70 H15        14.0333   11.6564   33.6321 H           1 MOL       0.0903
     71 H16        11.7625   10.5559   35.3762 H           1 MOL       0.0652
     72 H17        10.3323   12.2414   34.0910 H           1 MOL       0.0257
     73 H18        11.8400   13.0976   33.6793 H           1 MOL       0.0257
     74 H19        11.3400   12.8860   35.3867 H           1 MOL       0.0257
     75 H20        15.0540    7.4202   33.5958 H           1 MOL       0.2101
     76 H21        15.9975    9.9382   35.4474 H           1 MOL       0.2102
     77 H22        14.2930   11.2909   36.5145 H           1 MOL       0.2022
     78 H23        13.3704   12.5574   36.0530 H           1 MOL       0.2022
     79 H24        13.3377   17.8371   36.6322 H           1 MOL       0.0938
     80 H25        13.4881   19.3386   38.4085 H           1 MOL       0.0671
     81 H26        13.3133   17.1015   40.4711 H           1 MOL       0.0648
     82 H27        11.1254   19.0618   39.6565 H           1 MOL       0.0651
     83 H28        11.2708   16.0531   39.1518 H           1 MOL       0.0647
     84 H29         8.9355   16.6040   39.5140 H           1 MOL       0.0584
     85 H30         9.2058   16.4101   37.7787 H           1 MOL       0.0584
     86 H31        15.1887   17.1690   39.0776 H           1 MOL       0.2101
     87 H32        14.3625   18.9644   41.0903 H           1 MOL       0.2100
     88 H33         9.6485   18.8425   38.0345 H           1 MOL       0.2095
     89 H34        11.5843   15.9881   41.6304 H           1 MOL       0.0938
     90 H35        10.1999   15.3520   43.4781 H           1 MOL       0.0671
     91 H36         8.6918   18.0010   43.1988 H           1 MOL       0.0648
     92 H37        10.5421   17.2085   45.5076 H           1 MOL       0.0647
     93 H38        11.1995   19.2648   43.3234 H           1 MOL       0.0647
     94 H39        13.4148   19.3450   44.2969 H           1 MOL       0.0584
     95 H40        13.0340   18.0353   45.4252 H           1 MOL       0.0584
     96 H41         8.4274   14.9883   42.3871 H           1 MOL       0.2101
     97 H42         8.0116   17.1695   45.3465 H           1 MOL       0.2100
     98 H43         9.1909   19.5588   44.6797 H           1 MOL       0.2100
     99 H44        12.1062   20.6978   45.3855 H           1 MOL       0.2095
    100 H45        16.1528   12.2117   35.1380 H           1 MOL       0.0877
    101 H46        16.8539   13.7928   36.8748 H           1 MOL       0.0677
    102 H47        15.9376   12.3240   38.7173 H           1 MOL       0.2102
    103 H48        14.0016   13.6122   37.9606 H           1 MOL       0.0647
    104 H49        16.2208   15.1704   38.7709 H           1 MOL       0.2100
    105 H50        15.3804   16.1337   36.8767 H           1 MOL       0.0627
    106 H51        13.1357   14.5609   35.5140 H           1 MOL       0.0351
    107 H52        14.7492   13.7844   33.7852 H           1 MOL       0.0325
    108 H53        16.0731   14.5883   34.6165 H           1 MOL       0.0325
    109 H54        12.8282   16.6437   34.5858 H           1 MOL       0.0561
    110 H55        13.9344   15.9396   33.4277 H           1 MOL       0.0561
    111 H56        15.6491   16.9697   34.4596 H           1 MOL       0.2094
@<TRIPOS>BOND
     1     2     1   1
     2     1     7   1
     3    11     1   1
     4     3     2   1
     5     2     8   1
     6     4     3   1
     7     3     9   1
     8     4     5   1
     9    10     4   1
    10     5     6   1
    11     5    11   1
    12     6    12   1
    13    13    10   1
    14    14    13   1
    15    22    13   1
    16    15    14   1
    17    14    19   1
    18    16    15   1
    19    15    20   1
    20    16    17   1
    21    21    16   1
    22    17    18   1
    23    17    22   1
    24    45    21   1
    25    23    24   1
    26    23    32   1
    27    51    23   1
    28    24    25   1
    29    24    29   1
    30    25    26   1
    31    25    30   1
    32    27    26   1
    33    26    31   1
    34    27    28   1
    35    32    27   1
    36    28    33   1
    37    31    34   1
    38    34    35   1
    39    34    43   1
    40    35    36   1
    41    35    40   1
    42    36    37   1
    43    36    41   1
    44    38    37   1
    45    37    42   1
    46    38    39   1
    47    43    38   1
    48    39    44   1
    49    46    45   1
    50    45    53   1
    51    46    47   1
    52    48    46   1
    53    48    49   1
    54    50    48   1
    55    50    51   1
    56    50    52   1
    57    52    53   1
    58    52    54   1
    59    54    55   1
    60     1    56   1
    61     2    57   1
    62     3    58   1
    63     4    59   1
    64     5    60   1
    65     6    61   1
    66     6    62   1
    67     7    63   1
    68     8    64   1
    69     9    65   1
    70    12    66   1
    71    13    67   1
    72    14    68   1
    73    15    69   1
    74    16    70   1
    75    17    71   1
    76    18    72   1
    77    18    73   1
    78    18    74   1
    79    19    75   1
    80    20    76   1
    81    21    77   1
    82    21    78   1
    83    23    79   1
    84    24    80   1
    85    25    81   1
    86    26    82   1
    87    27    83   1
    88    28    84   1
    89    28    85   1
    90    29    86   1
    91    30    87   1
    92    33    88   1
    93    34    89   1
    94    35    90   1
    95    36    91   1
    96    37    92   1
    97    38    93   1
    98    39    94   1
    99    39    95   1
   100    40    96   1
   101    41    97   1
   102    42    98   1
   103    44    99   1
   104    45   100   1
   105    46   101   1
   106    47   102   1
   107    48   103   1
   108    49   104   1
   109    50   105   1
   110    52   106   1
   111    53   107   1
   112    53   108   1
   113    54   109   1
   114    54   110   1
   115    55   111   1
@<TRIPOS>SUBSTRUCTURE
     1  MOL      1

