@<TRIPOS>MOLECULE
1xd0_ligand_022
   111   115
SMALL
GAST_HUCK
****
This file was generated by PARSER (from files_GN.cpp)

@<TRIPOS>ATOM
      1 CR1         3.1289   15.4012   39.9455 C.3         1 MOL       0.1854
      2 CR2         4.0181   16.5971   39.5115 C.3         1 MOL       0.1339
      3 CR3         5.5000   16.2839   39.8425 C.3         1 MOL       0.1144
      4 CR4         5.7152   15.8837   41.3371 C.3         1 MOL       0.1184
      5 CR5         4.6094   14.8797   41.8412 C.3         1 MOL       0.1134
      6 CR6         4.4176   14.8789   43.3838 C.3         1 MOL       0.0730
      7 OR1         3.4020   14.2059   39.2141 O.3         1 MOL      -0.3649
      8 OR2         3.8379   16.8572   38.1140 O.3         1 MOL      -0.3841
      9 OR3         6.3201   17.4211   39.5411 O.3         1 MOL      -0.3864
     10 OR4         7.0620   15.3477   41.3271 O.3         1 MOL      -0.3401
     11 OR5         3.2858   15.1979   41.3538 O.3         1 MOL      -0.3407
     12 OR6         3.6566   13.7375   43.7789 O.3         1 MOL      -0.3924
     13 CV1         7.8448   14.9649   42.4792 C.3         1 MOL       0.1886
     14 CV2         8.3906   16.1148   43.3633 C.3         1 MOL       0.1370
     15 CV3         9.4028   16.9762   42.5508 C.3         1 MOL       0.1304
     16 CV4        10.5531   16.0938   41.9518 C.3         1 MOL       0.0334
     17 CV5         9.9285   14.8880   41.1739 C.3         1 MOL       0.1038
     18 CV6        10.9720   13.8273   40.7285 C.3         1 MOL      -0.0332
     19 OV2         7.3176   16.9017   43.8856 O.3         1 MOL      -0.3840
     20 OV3         9.9106   17.9726   43.4407 O.3         1 MOL      -0.3834
     21 NV4        11.4289   16.8723   41.0278 N.4         1 MOL       0.2370
     22 OV5         8.9598   14.1872   41.9943 O.3         1 MOL      -0.3401
     23 CQ1        15.2437   16.4067   37.4018 C.3         1 MOL       0.1883
     24 CQ2        14.5393   15.0361   37.5877 C.3         1 MOL       0.1341
     25 CQ3        14.2075   14.3967   36.2089 C.3         1 MOL       0.1144
     26 CQ4        15.4335   14.3578   35.2502 C.3         1 MOL       0.1184
     27 CQ5        16.2343   15.7038   35.2580 C.3         1 MOL       0.1134
     28 CQ6        15.6669   16.7841   34.2898 C.3         1 MOL       0.0730
     29 OQ2        15.3841   14.1715   38.3506 O.3         1 MOL      -0.3841
     30 OQ3        13.1321   15.1108   35.5991 O.3         1 MOL      -0.3864
     31 OQ4        16.2729   13.2412   35.6451 O.3         1 MOL      -0.3401
     32 OQ5        16.4200   16.2212   36.5913 O.3         1 MOL      -0.3405
     33 OQ6        16.4706   16.9112   33.1183 O.3         1 MOL      -0.3924
     34 CW1        17.0503   12.5591   34.6213 C.3         1 MOL       0.1884
     35 CW2        16.2432   11.5308   33.7645 C.3         1 MOL       0.1341
     36 CW3        15.7545   10.3621   34.6628 C.3         1 MOL       0.1141
     37 CW4        16.9416    9.7026   35.4077 C.3         1 MOL       0.1119
     38 CW5        17.8504   10.7606   36.1134 C.3         1 MOL       0.1130
     39 CW6        19.2016   10.1491   36.5797 C.3         1 MOL       0.0730
     40 OW2        15.1427   12.1456   33.0917 O.3         1 MOL      -0.3841
     41 OW3        15.0905    9.3594   33.8848 O.3         1 MOL      -0.3864
     42 OW4        16.4161    8.7670   36.3570 O.3         1 MOL      -0.3865
     43 OW5        18.1625   11.8772   35.2409 O.3         1 MOL      -0.3405
     44 OW6        19.0993    8.7700   36.9367 O.3         1 MOL      -0.3924
     45 CY1        12.5339   17.7052   41.5877 C.3         1 MOL       0.0073
     46 CY2        12.8944   18.8292   40.5652 C.3         1 MOL       0.1257
     47 OY2        11.6926   19.4971   40.1702 O.3         1 MOL      -0.3835
     48 CY3        13.6653   18.2650   39.3333 C.3         1 MOL       0.1127
     49 OY3        14.0637   19.3388   38.4786 O.3         1 MOL      -0.3864
     50 CY4        14.9377   17.4608   39.7390 C.3         1 MOL       0.0953
     51 OY4        15.7400   17.0044   38.6197 O.3         1 MOL      -0.3424
     52 CY5        14.6308   16.3298   40.7765 C.3         1 MOL       0.0162
     53 CY6        13.8159   16.9096   41.9806 C.3         1 MOL       0.0002
     54 CY7        15.8880   15.5316   41.2883 C.3         1 MOL       0.0497
     55 OY7        17.1162   15.7951   40.6096 O.3         1 MOL      -0.3946
     56 H1          2.0802   15.6667   39.7697 H           1 MOL       0.0935
     57 H2          3.7017   17.4892   40.0755 H           1 MOL       0.0671
     58 H3          5.8215   15.4557   39.1935 H           1 MOL       0.0648
     59 H4          5.6587   16.8080   41.9199 H           1 MOL       0.0651
     60 H5          4.8854   13.8679   41.5190 H           1 MOL       0.0647
     61 H6          3.8736   15.7767   43.6936 H           1 MOL       0.0584
     62 H7          5.3685   14.8595   43.9212 H           1 MOL       0.0584
     63 H8          3.2504   13.4873   39.8638 H           1 MOL       0.2126
     64 H9          4.0283   17.8111   38.0176 H           1 MOL       0.2101
     65 H10         6.3147   17.4912   38.5562 H           1 MOL       0.2100
     66 H11         4.3201   13.0433   43.9979 H           1 MOL       0.2095
     67 H12         7.2657   14.2725   43.0883 H           1 MOL       0.0938
     68 H13         8.9103   15.6637   44.2115 H           1 MOL       0.0672
     69 H14         8.8623   17.4834   41.7459 H           1 MOL       0.0679
     70 H15        11.1383   15.6890   42.7855 H           1 MOL       0.0903
     71 H16         9.4350   15.2577   40.2711 H           1 MOL       0.0652
     72 H17        10.4652   12.9760   40.2690 H           1 MOL       0.0257
     73 H18        11.5589   13.4735   41.5838 H           1 MOL       0.0257
     74 H19        11.6544   14.2376   39.9869 H           1 MOL       0.0257
     75 H20         7.6923   17.4386   44.6192 H           1 MOL       0.2101
     76 H21         9.5347   18.8274   43.1513 H           1 MOL       0.2102
     77 H22        10.8167   17.4820   40.4861 H           1 MOL       0.2022
     78 H23        11.8600   16.2258   40.3701 H           1 MOL       0.2022
     79 H24        14.5755   17.1117   36.9038 H           1 MOL       0.0938
     80 H25        13.6013   15.1756   38.1373 H           1 MOL       0.0671
     81 H26        13.8490   13.3767   36.3710 H           1 MOL       0.0648
     82 H27        15.0405   14.1833   34.2447 H           1 MOL       0.0651
     83 H28        17.2457   15.4953   34.9073 H           1 MOL       0.0647
     84 H29        15.6472   17.7572   34.7879 H           1 MOL       0.0584
     85 H30        14.6415   16.5498   33.9879 H           1 MOL       0.0584
     86 H31        14.7798   13.5054   38.7454 H           1 MOL       0.2101
     87 H32        12.3379   14.8927   36.1290 H           1 MOL       0.2100
     88 H33        16.3398   16.0782   32.6189 H           1 MOL       0.2095
     89 H34        17.4950   13.2929   33.9398 H           1 MOL       0.0938
     90 H35        16.9142   11.1350   32.9940 H           1 MOL       0.0671
     91 H36        15.0398   10.7544   35.3964 H           1 MOL       0.0648
     92 H37        17.5402    9.1455   34.6816 H           1 MOL       0.0647
     93 H38        17.3247   11.1432   36.9959 H           1 MOL       0.0647
     94 H39        19.5712   10.7031   37.4471 H           1 MOL       0.0584
     95 H40        19.9413   10.2282   35.7798 H           1 MOL       0.0584
     96 H41        14.8723   11.5054   32.3916 H           1 MOL       0.2101
     97 H42        14.2189    9.7418   33.6578 H           1 MOL       0.2100
     98 H43        15.8278    9.2943   36.9511 H           1 MOL       0.2100
     99 H44        18.2804    8.7104   37.4700 H           1 MOL       0.2095
    100 H45        12.1691   18.2118   42.4833 H           1 MOL       0.0877
    101 H46        13.5343   19.5688   41.0597 H           1 MOL       0.0677
    102 H47        11.6507   19.4779   39.1907 H           1 MOL       0.2102
    103 H48        12.9868   17.6145   38.7682 H           1 MOL       0.0647
    104 H49        13.2316   19.6726   38.0804 H           1 MOL       0.2100
    105 H50        15.5905   18.1602   40.2627 H           1 MOL       0.0627
    106 H51        13.9789   15.6080   40.2831 H           1 MOL       0.0351
    107 H52        13.5369   16.0960   42.6497 H           1 MOL       0.0325
    108 H53        14.4653   17.5803   42.5509 H           1 MOL       0.0325
    109 H54        15.6968   14.4587   41.1986 H           1 MOL       0.0561
    110 H55        16.0829   15.7261   42.3482 H           1 MOL       0.0561
    111 H56        17.4208   16.6673   40.9468 H           1 MOL       0.2094
@<TRIPOS>BOND
     1     2     1   1
     2     1     7   1
     3    11     1   1
     4     3     2   1
     5     2     8   1
     6     4     3   1
     7     3     9   1
     8     4     5   1
     9    10     4   1
    10     5     6   1
    11     5    11   1
    12     6    12   1
    13    13    10   1
    14    14    13   1
    15    22    13   1
    16    15    14   1
    17    14    19   1
    18    16    15   1
    19    15    20   1
    20    16    17   1
    21    21    16   1
    22    17    18   1
    23    17    22   1
    24    45    21   1
    25    23    24   1
    26    23    32   1
    27    51    23   1
    28    24    25   1
    29    24    29   1
    30    25    26   1
    31    25    30   1
    32    27    26   1
    33    26    31   1
    34    27    28   1
    35    32    27   1
    36    28    33   1
    37    31    34   1
    38    34    35   1
    39    34    43   1
    40    35    36   1
    41    35    40   1
    42    36    37   1
    43    36    41   1
    44    38    37   1
    45    37    42   1
    46    38    39   1
    47    43    38   1
    48    39    44   1
    49    46    45   1
    50    45    53   1
    51    46    47   1
    52    48    46   1
    53    48    49   1
    54    50    48   1
    55    50    51   1
    56    50    52   1
    57    52    53   1
    58    52    54   1
    59    54    55   1
    60     1    56   1
    61     2    57   1
    62     3    58   1
    63     4    59   1
    64     5    60   1
    65     6    61   1
    66     6    62   1
    67     7    63   1
    68     8    64   1
    69     9    65   1
    70    12    66   1
    71    13    67   1
    72    14    68   1
    73    15    69   1
    74    16    70   1
    75    17    71   1
    76    18    72   1
    77    18    73   1
    78    18    74   1
    79    19    75   1
    80    20    76   1
    81    21    77   1
    82    21    78   1
    83    23    79   1
    84    24    80   1
    85    25    81   1
    86    26    82   1
    87    27    83   1
    88    28    84   1
    89    28    85   1
    90    29    86   1
    91    30    87   1
    92    33    88   1
    93    34    89   1
    94    35    90   1
    95    36    91   1
    96    37    92   1
    97    38    93   1
    98    39    94   1
    99    39    95   1
   100    40    96   1
   101    41    97   1
   102    42    98   1
   103    44    99   1
   104    45   100   1
   105    46   101   1
   106    47   102   1
   107    48   103   1
   108    49   104   1
   109    50   105   1
   110    52   106   1
   111    53   107   1
   112    53   108   1
   113    54   109   1
   114    54   110   1
   115    55   111   1
@<TRIPOS>SUBSTRUCTURE
     1  MOL      1

