@<TRIPOS>MOLECULE
1xd0_ligand_061
   111   115
SMALL
GAST_HUCK
****
This file was generated by PARSER (from files_GN.cpp)

@<TRIPOS>ATOM
      1 CR1        -1.2543   16.1062   37.2296 C.3         1 MOL       0.1854
      2 CR2         0.2500   15.8245   36.9760 C.3         1 MOL       0.1339
      3 CR3         1.1412   16.9672   37.5440 C.3         1 MOL       0.1144
      4 CR4         0.7175   17.5006   38.9544 C.3         1 MOL       0.1184
      5 CR5        -0.8341   17.5405   39.1808 C.3         1 MOL       0.1134
      6 CR6        -1.5311   18.8885   38.8092 C.3         1 MOL       0.0730
      7 OR1        -2.0376   14.9647   36.8798 O.3         1 MOL      -0.3649
      8 OR2         0.6245   14.5590   37.5269 O.3         1 MOL      -0.3841
      9 OR3         1.1370   18.0481   36.6076 O.3         1 MOL      -0.3864
     10 OR4         1.3976   16.9049   40.0871 O.3         1 MOL      -0.3401
     11 OR5        -1.5095   16.3911   38.6178 O.3         1 MOL      -0.3407
     12 OR6        -1.3646   19.2838   37.4469 O.3         1 MOL      -0.3924
     13 CV1         1.3625   15.4838   40.3387 C.3         1 MOL       0.1886
     14 CV2         1.4875   15.1912   41.8546 C.3         1 MOL       0.1370
     15 CV3         2.8904   15.5873   42.3879 C.3         1 MOL       0.1304
     16 CV4         4.0501   14.9972   41.5223 C.3         1 MOL       0.0334
     17 CV5         3.7673   15.2280   40.0002 C.3         1 MOL       0.1038
     18 CV6         4.7304   14.4357   39.0830 C.3         1 MOL      -0.0332
     19 OV2         0.4605   15.8970   42.5586 O.3         1 MOL      -0.3840
     20 OV3         2.9953   15.1321   43.7386 O.3         1 MOL      -0.3834
     21 NV4         5.3312   15.6499   41.9227 N.4         1 MOL       0.2370
     22 OV5         2.4289   14.8103   39.6444 O.3         1 MOL      -0.3401
     23 CQ1        11.0110   17.4941   41.8454 C.3         1 MOL       0.1883
     24 CQ2        11.5912   18.4843   40.8032 C.3         1 MOL       0.1341
     25 CQ3        13.0535   18.8765   41.1656 C.3         1 MOL       0.1144
     26 CQ4        13.9584   17.6751   41.6067 C.3         1 MOL       0.1184
     27 CQ5        13.2176   16.6849   42.5716 C.3         1 MOL       0.1134
     28 CQ6        13.1758   17.0980   44.0713 C.3         1 MOL       0.0730
     29 OQ2        11.5030   17.9419   39.4888 O.3         1 MOL      -0.3841
     30 OQ3        13.0143   19.8410   42.2252 O.3         1 MOL      -0.3864
     31 OQ4        14.6617   17.0373   40.5083 O.3         1 MOL      -0.3401
     32 OQ5        11.9052   16.3782   42.0546 O.3         1 MOL      -0.3405
     33 OQ6        12.3684   16.1912   44.8180 O.3         1 MOL      -0.3924
     34 CW1        14.1315   15.9612   39.6958 C.3         1 MOL       0.1884
     35 CW2        15.2693   14.9691   39.3401 C.3         1 MOL       0.1341
     36 CW3        16.2431   15.5730   38.2929 C.3         1 MOL       0.1141
     37 CW4        15.4636   16.1014   37.0605 C.3         1 MOL       0.1119
     38 CW5        14.3439   17.0782   37.5250 C.3         1 MOL       0.1130
     39 CW6        13.4358   17.5528   36.3638 C.3         1 MOL       0.0730
     40 OW2        15.9939   14.5904   40.5116 O.3         1 MOL      -0.3841
     41 OW3        17.1778   14.5734   37.8931 O.3         1 MOL      -0.3864
     42 OW4        16.3430   16.7556   36.1506 O.3         1 MOL      -0.3865
     43 OW5        13.4928   16.4413   38.5000 O.3         1 MOL      -0.3405
     44 OW6        12.8203   16.4614   35.6779 O.3         1 MOL      -0.3924
     45 CY1         6.2893   14.9007   42.7900 C.3         1 MOL       0.0073
     46 CY2         7.0156   15.8649   43.7744 C.3         1 MOL       0.1257
     47 OY2         6.0453   16.5860   44.5356 O.3         1 MOL      -0.3835
     48 CY3         7.9749   16.8445   43.0384 C.3         1 MOL       0.1127
     49 OY3         8.6720   17.6389   43.9991 O.3         1 MOL      -0.3864
     50 CY4         9.0066   16.0776   42.1536 C.3         1 MOL       0.0953
     51 OY4         9.7459   17.0198   41.3456 O.3         1 MOL      -0.3424
     52 CY5         8.3147   15.0800   41.1701 C.3         1 MOL       0.0162
     53 CY6         7.3418   14.1288   41.9386 C.3         1 MOL       0.0002
     54 CY7         9.3407   14.3003   40.2870 C.3         1 MOL       0.0497
     55 OY7        10.3668   13.6645   41.0440 O.3         1 MOL      -0.3946
     56 H1         -1.6020   16.9288   36.5959 H           1 MOL       0.0935
     57 H2          0.4036   15.7489   35.8943 H           1 MOL       0.0671
     58 H3          2.1749   16.6184   37.5956 H           1 MOL       0.0648
     59 H4          1.0767   18.5314   39.0080 H           1 MOL       0.0651
     60 H5         -0.9972   17.4490   40.2598 H           1 MOL       0.0647
     61 H6         -1.1366   19.6939   39.4440 H           1 MOL       0.0584
     62 H7         -2.6052   18.7986   39.0066 H           1 MOL       0.0584
     63 H8         -2.9667   15.2093   37.1000 H           1 MOL       0.2126
     64 H9          0.0621   13.8948   37.0691 H           1 MOL       0.2101
     65 H10         1.5235   17.6844   35.7832 H           1 MOL       0.2100
     66 H11        -0.4066   19.4909   37.3660 H           1 MOL       0.2095
     67 H12         0.4077   15.0591   40.0126 H           1 MOL       0.0938
     68 H13         1.3323   14.1175   42.0156 H           1 MOL       0.0672
     69 H14         2.9521   16.6832   42.3882 H           1 MOL       0.0679
     70 H15         4.0856   13.9149   41.6956 H           1 MOL       0.0903
     71 H16         3.8978   16.2915   39.7706 H           1 MOL       0.0652
     72 H17         4.4596   14.5981   38.0383 H           1 MOL       0.0257
     73 H18         4.6696   13.3657   39.2957 H           1 MOL       0.0257
     74 H19         5.7607   14.7665   39.2184 H           1 MOL       0.0257
     75 H20         0.5829   15.6708   43.5084 H           1 MOL       0.2101
     76 H21         3.8288   15.5267   44.0758 H           1 MOL       0.2102
     77 H22         5.0943   16.5190   42.4062 H           1 MOL       0.2022
     78 H23         5.8212   15.9234   41.0726 H           1 MOL       0.2022
     79 H24        10.8425   18.0372   42.7808 H           1 MOL       0.0938
     80 H25        10.9669   19.3848   40.8005 H           1 MOL       0.0671
     81 H26        13.5174   19.3697   40.3055 H           1 MOL       0.0648
     82 H27        14.7851   18.1072   42.1807 H           1 MOL       0.0651
     83 H28        13.7669   15.7372   42.5545 H           1 MOL       0.0647
     84 H29        12.7813   18.1050   44.1991 H           1 MOL       0.0584
     85 H30        14.1852   17.0711   44.4816 H           1 MOL       0.0584
     86 H31        11.6712   18.6942   38.8760 H           1 MOL       0.2101
     87 H32        12.3751   20.5346   41.9457 H           1 MOL       0.2100
     88 H33        12.4491   16.4666   45.7586 H           1 MOL       0.2095
     89 H34        13.3777   15.3947   40.2368 H           1 MOL       0.0938
     90 H35        14.8223   14.0628   38.9184 H           1 MOL       0.0671
     91 H36        16.8007   16.3952   38.7522 H           1 MOL       0.0648
     92 H37        15.0067   15.2547   36.5422 H           1 MOL       0.0647
     93 H38        14.8019   17.9694   37.9704 H           1 MOL       0.0647
     94 H39        14.0151   18.1406   35.6458 H           1 MOL       0.0584
     95 H40        12.6426   18.1912   36.7628 H           1 MOL       0.0584
     96 H41        15.3323   14.1677   41.0978 H           1 MOL       0.2101
     97 H42        17.8116   15.0264   37.2988 H           1 MOL       0.2100
     98 H43        16.9635   16.0624   35.8418 H           1 MOL       0.2100
     99 H44        12.2731   16.0095   36.3570 H           1 MOL       0.2095
    100 H45         5.7422   14.1732   43.3996 H           1 MOL       0.0877
    101 H46         7.6009   15.2680   44.4815 H           1 MOL       0.0677
    102 H47         6.5599   17.1750   45.1260 H           1 MOL       0.2102
    103 H48         7.3885   17.5188   42.4062 H           1 MOL       0.0647
    104 H49         7.9920   18.1756   44.4564 H           1 MOL       0.2100
    105 H50         9.6589   15.4988   42.8190 H           1 MOL       0.0627
    106 H51         7.7166   15.6751   40.4746 H           1 MOL       0.0351
    107 H52         6.8213   13.4787   41.2302 H           1 MOL       0.0325
    108 H53         7.9244   13.4881   42.6044 H           1 MOL       0.0325
    109 H54         9.8205   14.9946   39.5908 H           1 MOL       0.0561
    110 H55         8.8196   13.5442   39.6939 H           1 MOL       0.0561
    111 H56        10.9519   13.2376   40.3808 H           1 MOL       0.2094
@<TRIPOS>BOND
     1     2     1   1
     2     1     7   1
     3    11     1   1
     4     3     2   1
     5     2     8   1
     6     4     3   1
     7     3     9   1
     8     4     5   1
     9    10     4   1
    10     5     6   1
    11     5    11   1
    12     6    12   1
    13    13    10   1
    14    14    13   1
    15    22    13   1
    16    15    14   1
    17    14    19   1
    18    16    15   1
    19    15    20   1
    20    16    17   1
    21    21    16   1
    22    17    18   1
    23    17    22   1
    24    45    21   1
    25    23    24   1
    26    23    32   1
    27    51    23   1
    28    24    25   1
    29    24    29   1
    30    25    26   1
    31    25    30   1
    32    27    26   1
    33    26    31   1
    34    27    28   1
    35    32    27   1
    36    28    33   1
    37    31    34   1
    38    34    35   1
    39    34    43   1
    40    35    36   1
    41    35    40   1
    42    36    37   1
    43    36    41   1
    44    38    37   1
    45    37    42   1
    46    38    39   1
    47    43    38   1
    48    39    44   1
    49    46    45   1
    50    45    53   1
    51    46    47   1
    52    48    46   1
    53    48    49   1
    54    50    48   1
    55    50    51   1
    56    50    52   1
    57    52    53   1
    58    52    54   1
    59    54    55   1
    60     1    56   1
    61     2    57   1
    62     3    58   1
    63     4    59   1
    64     5    60   1
    65     6    61   1
    66     6    62   1
    67     7    63   1
    68     8    64   1
    69     9    65   1
    70    12    66   1
    71    13    67   1
    72    14    68   1
    73    15    69   1
    74    16    70   1
    75    17    71   1
    76    18    72   1
    77    18    73   1
    78    18    74   1
    79    19    75   1
    80    20    76   1
    81    21    77   1
    82    21    78   1
    83    23    79   1
    84    24    80   1
    85    25    81   1
    86    26    82   1
    87    27    83   1
    88    28    84   1
    89    28    85   1
    90    29    86   1
    91    30    87   1
    92    33    88   1
    93    34    89   1
    94    35    90   1
    95    36    91   1
    96    37    92   1
    97    38    93   1
    98    39    94   1
    99    39    95   1
   100    40    96   1
   101    41    97   1
   102    42    98   1
   103    44    99   1
   104    45   100   1
   105    46   101   1
   106    47   102   1
   107    48   103   1
   108    49   104   1
   109    50   105   1
   110    52   106   1
   111    53   107   1
   112    53   108   1
   113    54   109   1
   114    54   110   1
   115    55   111   1
@<TRIPOS>SUBSTRUCTURE
     1  MOL      1

