@<TRIPOS>MOLECULE
1xd0_ligand_073
   111   115
SMALL
GAST_HUCK
****
This file was generated by PARSER (from files_GN.cpp)

@<TRIPOS>ATOM
      1 CR1        -4.7945   15.7718   38.4298 C.3         1 MOL       0.1854
      2 CR2        -3.8374   16.8180   37.7957 C.3         1 MOL       0.1339
      3 CR3        -2.3928   16.6543   38.3474 C.3         1 MOL       0.1144
      4 CR4        -2.3869   16.6443   39.9053 C.3         1 MOL       0.1184
      5 CR5        -3.4067   15.5795   40.4322 C.3         1 MOL       0.1134
      6 CR6        -3.5513   15.5820   41.9747 C.3         1 MOL       0.0730
      7 OR1        -4.5311   14.4581   37.9376 O.3         1 MOL      -0.3649
      8 OR2        -3.8386   16.7002   36.3723 O.3         1 MOL      -0.3841
      9 OR3        -1.5658   17.7143   37.8673 O.3         1 MOL      -0.3864
     10 OR4        -1.0719   16.5532   40.5041 O.3         1 MOL      -0.3401
     11 OR5        -4.7176   15.8183   39.8681 O.3         1 MOL      -0.3407
     12 OR6        -4.7236   14.8751   42.3745 O.3         1 MOL      -0.3924
     13 CV1        -0.2762   15.3565   40.3323 C.3         1 MOL       0.1886
     14 CV2         0.4945   15.0076   41.6424 C.3         1 MOL       0.1370
     15 CV3         1.7841   15.8458   41.8164 C.3         1 MOL       0.1304
     16 CV4         2.6409   15.7678   40.5177 C.3         1 MOL       0.0334
     17 CV5         1.7772   16.3173   39.3327 C.3         1 MOL       0.1038
     18 CV6         2.5099   16.3161   37.9694 C.3         1 MOL      -0.0332
     19 OV2        -0.3250   15.1716   42.7989 O.3         1 MOL      -0.3840
     20 OV3         2.4767   15.3443   42.9643 O.3         1 MOL      -0.3834
     21 NV4         3.9374   16.4798   40.7258 N.4         1 MOL       0.2370
     22 OV5         0.6053   15.4874   39.1880 O.3         1 MOL      -0.3401
     23 CQ1         9.0738   15.4460   44.1070 C.3         1 MOL       0.1883
     24 CQ2        10.0730   16.2917   44.9779 C.3         1 MOL       0.1341
     25 CQ3        11.5672   16.0634   44.5921 C.3         1 MOL       0.1144
     26 CQ4        11.8517   15.9413   43.0554 C.3         1 MOL       0.1184
     27 CQ5        10.6841   15.2187   42.3032 C.3         1 MOL       0.1134
     28 CQ6        11.1325   14.1664   41.2607 C.3         1 MOL       0.0730
     29 OQ2         9.7769   17.6893   44.9489 O.3         1 MOL      -0.3841
     30 OQ3        11.9979   14.8407   45.1987 O.3         1 MOL      -0.3864
     31 OQ4        12.0011   17.1959   42.3714 O.3         1 MOL      -0.3401
     32 OQ5         9.7780   14.5638   43.2126 O.3         1 MOL      -0.3405
     33 OQ6        11.8597   14.7690   40.1919 O.3         1 MOL      -0.3924
     34 CW1        13.2328   17.9405   42.3553 C.3         1 MOL       0.1884
     35 CW2        13.2421   18.7966   41.0586 C.3         1 MOL       0.1341
     36 CW3        13.5088   17.8898   39.8196 C.3         1 MOL       0.1141
     37 CW4        14.8044   17.0581   40.0100 C.3         1 MOL       0.1119
     38 CW5        14.7537   16.2602   41.3415 C.3         1 MOL       0.1130
     39 CW6        16.0714   15.5408   41.7246 C.3         1 MOL       0.0730
     40 OW2        12.0038   19.4863   40.8731 O.3         1 MOL      -0.3841
     41 OW3        13.6034   18.6713   38.6321 O.3         1 MOL      -0.3864
     42 OW4        14.9501   16.1567   38.9042 O.3         1 MOL      -0.3865
     43 OW5        14.4303   17.1413   42.4468 O.3         1 MOL      -0.3405
     44 OW6        16.4015   14.4876   40.8146 O.3         1 MOL      -0.3924
     45 CY1         5.1698   15.8299   40.1924 C.3         1 MOL       0.0073
     46 CY2         5.6647   14.5754   40.9954 C.3         1 MOL       0.1257
     47 OY2         4.6657   13.5844   41.1700 O.3         1 MOL      -0.3835
     48 CY3         6.2692   14.9522   42.3824 C.3         1 MOL       0.1127
     49 OY3         6.7086   13.7545   43.0203 O.3         1 MOL      -0.3864
     50 CY4         7.4598   15.9270   42.1966 C.3         1 MOL       0.0953
     51 OY4         8.0951   16.2927   43.4565 O.3         1 MOL      -0.3424
     52 CY5         7.0056   17.2311   41.4566 C.3         1 MOL       0.0162
     53 CY6         6.3087   16.8777   40.0890 C.3         1 MOL       0.0002
     54 CY7         8.1624   18.2429   41.2004 C.3         1 MOL       0.0497
     55 OY7         9.2284   18.1684   42.1407 O.3         1 MOL      -0.3946
     56 H1         -5.8217   16.0238   38.1560 H           1 MOL       0.0935
     57 H2         -4.2016   17.8180   38.0510 H           1 MOL       0.0671
     58 H3         -1.9816   15.7128   37.9782 H           1 MOL       0.0648
     59 H4         -2.7639   17.6203   40.2255 H           1 MOL       0.0651
     60 H5         -3.0838   14.5749   40.1433 H           1 MOL       0.0647
     61 H6         -3.6253   16.6042   42.3474 H           1 MOL       0.0584
     62 H7         -2.6943   15.1049   42.4376 H           1 MOL       0.0584
     63 H8         -5.1066   13.8642   38.4632 H           1 MOL       0.2126
     64 H9         -4.7417   16.9631   36.0879 H           1 MOL       0.2101
     65 H10        -1.4982   17.5724   36.8998 H           1 MOL       0.2100
     66 H11        -4.5067   13.9257   42.2568 H           1 MOL       0.2095
     67 H12        -0.9117   14.4996   40.1166 H           1 MOL       0.0938
     68 H13         0.7726   13.9486   41.6017 H           1 MOL       0.0672
     69 H14         1.5160   16.8898   42.0104 H           1 MOL       0.0679
     70 H15         2.7998   14.7161   40.2975 H           1 MOL       0.0903
     71 H16         1.4746   17.3494   39.5406 H           1 MOL       0.0652
     72 H17         1.8249   16.6217   37.1740 H           1 MOL       0.0257
     73 H18         2.8897   15.3181   37.7324 H           1 MOL       0.0257
     74 H19         3.3483   17.0202   37.9836 H           1 MOL       0.0257
     75 H20        -0.6471   16.0969   42.7634 H           1 MOL       0.2101
     76 H21         3.0758   16.0668   43.2531 H           1 MOL       0.2102
     77 H22         4.0844   16.6295   41.7239 H           1 MOL       0.2022
     78 H23         3.8452   17.4038   40.2942 H           1 MOL       0.2022
     79 H24         8.5246   14.7955   44.7888 H           1 MOL       0.0938
     80 H25         9.9611   15.9966   46.0298 H           1 MOL       0.0671
     81 H26        12.1963   16.8574   45.0026 H           1 MOL       0.0648
     82 H27        12.7542   15.3491   42.9502 H           1 MOL       0.0651
     83 H28        10.1276   15.9633   41.7395 H           1 MOL       0.0647
     84 H29        10.2475   13.6936   40.8117 H           1 MOL       0.0584
     85 H30        11.7399   13.3869   41.7229 H           1 MOL       0.0584
     86 H31         8.9826   17.7985   45.5169 H           1 MOL       0.2101
     87 H32        12.2773   15.0914   46.1061 H           1 MOL       0.2100
     88 H33        12.1811   14.0118   39.6551 H           1 MOL       0.2095
     89 H34        13.2297   18.6136   43.2165 H           1 MOL       0.0938
     90 H35        14.0393   19.5451   41.1247 H           1 MOL       0.0671
     91 H36        12.6587   17.2046   39.6946 H           1 MOL       0.0648
     92 H37        15.6673   17.7253   40.0215 H           1 MOL       0.0647
     93 H38        13.9952   15.4873   41.2421 H           1 MOL       0.0647
     94 H39        15.9596   15.0815   42.7097 H           1 MOL       0.0584
     95 H40        16.9040   16.2434   41.7717 H           1 MOL       0.0584
     96 H41        11.9784   20.1908   41.5516 H           1 MOL       0.2101
     97 H42        12.6860   18.9440   38.4064 H           1 MOL       0.2100
     98 H43        15.3293   16.6961   38.1798 H           1 MOL       0.2100
     99 H44        16.4694   14.9191   39.9402 H           1 MOL       0.2095
    100 H45         4.9652   15.4975   39.1689 H           1 MOL       0.0877
    101 H46         6.4462   14.0906   40.3976 H           1 MOL       0.0677
    102 H47         4.0800   13.9244   41.8785 H           1 MOL       0.2102
    103 H48         5.4938   15.4101   43.0037 H           1 MOL       0.0647
    104 H49         5.9211   13.3824   43.4730 H           1 MOL       0.2100
    105 H50         8.1594   15.4298   41.5434 H           1 MOL       0.0627
    106 H51         6.2650   17.7387   42.0878 H           1 MOL       0.0351
    107 H52         5.9166   17.7965   39.6357 H           1 MOL       0.0325
    108 H53         7.0733   16.4885   39.4007 H           1 MOL       0.0325
    109 H54         7.7683   19.2618   41.2515 H           1 MOL       0.0561
    110 H55         8.5914   18.0967   40.2025 H           1 MOL       0.0561
    111 H56         8.8193   18.3737   43.0089 H           1 MOL       0.2094
@<TRIPOS>BOND
     1     2     1   1
     2     1     7   1
     3    11     1   1
     4     3     2   1
     5     2     8   1
     6     4     3   1
     7     3     9   1
     8     4     5   1
     9    10     4   1
    10     5     6   1
    11     5    11   1
    12     6    12   1
    13    13    10   1
    14    14    13   1
    15    22    13   1
    16    15    14   1
    17    14    19   1
    18    16    15   1
    19    15    20   1
    20    16    17   1
    21    21    16   1
    22    17    18   1
    23    17    22   1
    24    45    21   1
    25    23    24   1
    26    23    32   1
    27    51    23   1
    28    24    25   1
    29    24    29   1
    30    25    26   1
    31    25    30   1
    32    27    26   1
    33    26    31   1
    34    27    28   1
    35    32    27   1
    36    28    33   1
    37    31    34   1
    38    34    35   1
    39    34    43   1
    40    35    36   1
    41    35    40   1
    42    36    37   1
    43    36    41   1
    44    38    37   1
    45    37    42   1
    46    38    39   1
    47    43    38   1
    48    39    44   1
    49    46    45   1
    50    45    53   1
    51    46    47   1
    52    48    46   1
    53    48    49   1
    54    50    48   1
    55    50    51   1
    56    50    52   1
    57    52    53   1
    58    52    54   1
    59    54    55   1
    60     1    56   1
    61     2    57   1
    62     3    58   1
    63     4    59   1
    64     5    60   1
    65     6    61   1
    66     6    62   1
    67     7    63   1
    68     8    64   1
    69     9    65   1
    70    12    66   1
    71    13    67   1
    72    14    68   1
    73    15    69   1
    74    16    70   1
    75    17    71   1
    76    18    72   1
    77    18    73   1
    78    18    74   1
    79    19    75   1
    80    20    76   1
    81    21    77   1
    82    21    78   1
    83    23    79   1
    84    24    80   1
    85    25    81   1
    86    26    82   1
    87    27    83   1
    88    28    84   1
    89    28    85   1
    90    29    86   1
    91    30    87   1
    92    33    88   1
    93    34    89   1
    94    35    90   1
    95    36    91   1
    96    37    92   1
    97    38    93   1
    98    39    94   1
    99    39    95   1
   100    40    96   1
   101    41    97   1
   102    42    98   1
   103    44    99   1
   104    45   100   1
   105    46   101   1
   106    47   102   1
   107    48   103   1
   108    49   104   1
   109    50   105   1
   110    52   106   1
   111    53   107   1
   112    53   108   1
   113    54   109   1
   114    54   110   1
   115    55   111   1
@<TRIPOS>SUBSTRUCTURE
     1  MOL      1

