@<TRIPOS>MOLECULE
1xd0_ligand_025
   111   115
SMALL
GAST_HUCK
****
This file was generated by PARSER (from files_GN.cpp)

@<TRIPOS>ATOM
      1 CR1         4.1749   15.1673   39.5481 C.3         1 MOL       0.1854
      2 CR2         4.2400   16.5842   40.1928 C.3         1 MOL       0.1339
      3 CR3         3.1067   16.7868   41.2562 C.3         1 MOL       0.1144
      4 CR4         3.0174   15.5951   42.2636 C.3         1 MOL       0.1184
      5 CR5         2.9356   14.2432   41.4588 C.3         1 MOL       0.1134
      6 CR6         1.5506   13.9240   40.8043 C.3         1 MOL       0.0730
      7 OR1         5.3742   14.8852   38.8244 O.3         1 MOL      -0.3649
      8 OR2         5.5322   16.7974   40.7805 O.3         1 MOL      -0.3841
      9 OR3         1.8455   16.9784   40.5993 O.3         1 MOL      -0.3864
     10 OR4         4.0826   15.7486   43.2447 O.3         1 MOL      -0.3401
     11 OR5         4.0397   14.1203   40.5329 O.3         1 MOL      -0.3407
     12 OR6         0.5357   14.8064   41.3022 O.3         1 MOL      -0.3924
     13 CV1         4.7402   14.6045   43.8560 C.3         1 MOL       0.1886
     14 CV2         5.1665   14.8178   45.3333 C.3         1 MOL       0.1370
     15 CV3         6.3262   15.8345   45.4742 C.3         1 MOL       0.1304
     16 CV4         7.5020   15.5547   44.4929 C.3         1 MOL       0.0334
     17 CV5         6.9242   15.3072   43.0532 C.3         1 MOL       0.1038
     18 CV6         7.9555   14.8433   42.0020 C.3         1 MOL      -0.0332
     19 OV2         4.0305   15.2231   46.0898 O.3         1 MOL      -0.3840
     20 OV3         6.7827   15.8030   46.8200 O.3         1 MOL      -0.3834
     21 NV4         8.4331   16.7246   44.4594 N.4         1 MOL       0.2370
     22 OV5         5.8931   14.2852   43.0516 O.3         1 MOL      -0.3401
     23 CQ1        11.3823   16.5666   40.9023 C.3         1 MOL       0.1883
     24 CQ2        11.5508   15.1394   40.2923 C.3         1 MOL       0.1341
     25 CQ3        11.0462   15.0459   38.8134 C.3         1 MOL       0.1144
     26 CQ4        11.4892   16.2832   37.9831 C.3         1 MOL       0.1184
     27 CQ5        11.0951   17.6173   38.6960 C.3         1 MOL       0.1134
     28 CQ6         9.5886   18.0371   38.6566 C.3         1 MOL       0.0730
     29 OQ2        12.9172   14.7159   40.3705 O.3         1 MOL      -0.3841
     30 OQ3         9.6316   14.8606   38.7731 O.3         1 MOL      -0.3864
     31 OQ4        12.9108   16.0894   37.8157 O.3         1 MOL      -0.3401
     32 OQ5        11.6735   17.6498   40.0059 O.3         1 MOL      -0.3405
     33 OQ6         8.6881   17.1567   39.3386 O.3         1 MOL      -0.3924
     34 CW1        13.8248   17.1782   37.5704 C.3         1 MOL       0.1884
     35 CW2        15.0825   16.6350   36.8490 C.3         1 MOL       0.1341
     36 CW3        15.9016   15.7087   37.7924 C.3         1 MOL       0.1141
     37 CW4        16.2054   16.4058   39.1460 C.3         1 MOL       0.1119
     38 CW5        14.8935   16.9955   39.7777 C.3         1 MOL       0.1130
     39 CW6        15.1592   17.8201   41.0903 C.3         1 MOL       0.0730
     40 OW2        14.7072   15.9129   35.6693 O.3         1 MOL      -0.3841
     41 OW3        17.1164   15.3379   37.1507 O.3         1 MOL      -0.3864
     42 OW4        16.8347   15.4796   40.0301 O.3         1 MOL      -0.3865
     43 OW5        14.1948   17.8452   38.8095 O.3         1 MOL      -0.3405
     44 OW6        14.6479   17.1555   42.2531 O.3         1 MOL      -0.3924
     45 CY1         9.6295   16.8195   45.3550 C.3         1 MOL       0.0073
     46 CY2        10.3933   18.1550   45.0758 C.3         1 MOL       0.1257
     47 OY2         9.5793   19.2948   45.3380 O.3         1 MOL      -0.3835
     48 CY3        10.9633   18.1813   43.6298 C.3         1 MOL       0.1127
     49 OY3        11.7168   19.3729   43.4061 O.3         1 MOL      -0.3864
     50 CY4        11.8650   16.9353   43.3482 C.3         1 MOL       0.0953
     51 OY4        12.3123   16.8046   41.9816 O.3         1 MOL      -0.3424
     52 CY5        11.2927   15.5550   43.8241 C.3         1 MOL       0.0162
     53 CY6        10.6446   15.6450   45.2316 C.3         1 MOL       0.0002
     54 CY7        12.3623   14.4261   43.7609 C.3         1 MOL       0.0497
     55 OY7        13.6983   14.9287   43.7602 O.3         1 MOL      -0.3946
     56 H1          3.3503   15.1217   38.8294 H           1 MOL       0.0935
     57 H2          4.1039   17.3301   39.3902 H           1 MOL       0.0671
     58 H3          3.3088   17.7109   41.8141 H           1 MOL       0.0648
     59 H4          2.1026   15.7170   42.8451 H           1 MOL       0.0651
     60 H5          3.0810   13.4239   42.1604 H           1 MOL       0.0647
     61 H6          1.2623   12.8835   41.0420 H           1 MOL       0.0584
     62 H7          1.5806   14.0260   39.7099 H           1 MOL       0.0584
     63 H8          5.3713   15.5095   38.0684 H           1 MOL       0.2126
     64 H9          5.4641   17.6897   41.1834 H           1 MOL       0.2101
     65 H10         1.9766   17.7812   40.0505 H           1 MOL       0.2100
     66 H11        -0.2058   14.2169   41.5682 H           1 MOL       0.2095
     67 H12         4.0699   13.7363   43.8696 H           1 MOL       0.0938
     68 H13         5.4960   13.8495   45.7226 H           1 MOL       0.0672
     69 H14         5.9265   16.8348   45.2745 H           1 MOL       0.0679
     70 H15         8.0196   14.6465   44.8066 H           1 MOL       0.0903
     71 H16         6.4991   16.2508   42.6885 H           1 MOL       0.0652
     72 H17         7.4425   14.5516   41.0802 H           1 MOL       0.0257
     73 H18         8.5337   13.9963   42.3649 H           1 MOL       0.0257
     74 H19         8.6263   15.6626   41.7582 H           1 MOL       0.0257
     75 H20         3.5228   14.3985   46.2459 H           1 MOL       0.2101
     76 H21         7.1101   14.8936   46.9692 H           1 MOL       0.2102
     77 H22         7.8708   17.5605   44.6628 H           1 MOL       0.2022
     78 H23         8.7801   16.8167   43.5021 H           1 MOL       0.2022
     79 H24        10.3492   16.6550   41.2203 H           1 MOL       0.0938
     80 H25        10.9693   14.4279   40.8997 H           1 MOL       0.0671
     81 H26        11.4656   14.1447   38.3532 H           1 MOL       0.0648
     82 H27        11.0340   16.2535   36.9898 H           1 MOL       0.0651
     83 H28        11.5921   18.4261   38.1643 H           1 MOL       0.0647
     84 H29         9.2539   18.1163   37.6128 H           1 MOL       0.0584
     85 H30         9.4944   19.0379   39.1106 H           1 MOL       0.0584
     86 H31        12.9093   13.7722   40.0845 H           1 MOL       0.2101
     87 H32         9.4333   14.6079   37.8454 H           1 MOL       0.2100
     88 H33         8.5061   17.5922   40.2030 H           1 MOL       0.2095
     89 H34        13.3681   17.9225   36.9125 H           1 MOL       0.0938
     90 H35        15.7081   17.4830   36.5477 H           1 MOL       0.0671
     91 H36        15.3235   14.7969   37.9853 H           1 MOL       0.0648
     92 H37        16.9035   17.2226   38.9801 H           1 MOL       0.0647
     93 H38        14.2426   16.1444   40.0438 H           1 MOL       0.0647
     94 H39        14.6766   18.8033   41.0370 H           1 MOL       0.0584
     95 H40        16.2330   17.9850   41.2552 H           1 MOL       0.0584
     96 H41        14.4033   16.6007   35.0401 H           1 MOL       0.2101
     97 H42        17.3775   14.4957   37.5736 H           1 MOL       0.2100
     98 H43        16.0983   15.0766   40.5470 H           1 MOL       0.2100
     99 H44        15.1319   16.3029   42.2702 H           1 MOL       0.2095
    100 H45         9.2702   16.8460   46.3895 H           1 MOL       0.0877
    101 H46        11.2249   18.2304   45.7741 H           1 MOL       0.0677
    102 H47         9.1868   19.5643   44.4760 H           1 MOL       0.2102
    103 H48        10.1217   18.2175   42.9394 H           1 MOL       0.0647
    104 H49        11.0748   20.0394   43.0764 H           1 MOL       0.2100
    105 H50        12.7738   17.1142   43.9243 H           1 MOL       0.0627
    106 H51        10.4961   15.2656   43.1425 H           1 MOL       0.0351
    107 H52        10.1457   14.7027   45.4682 H           1 MOL       0.0325
    108 H53        11.4256   15.7813   45.9837 H           1 MOL       0.0325
    109 H54        12.2279   13.8436   42.8462 H           1 MOL       0.0561
    110 H55        12.2571   13.7416   44.6072 H           1 MOL       0.0561
    111 H56        14.1746   14.3860   44.4311 H           1 MOL       0.2094
@<TRIPOS>BOND
     1     2     1   1
     2     1     7   1
     3    11     1   1
     4     3     2   1
     5     2     8   1
     6     4     3   1
     7     3     9   1
     8     4     5   1
     9    10     4   1
    10     5     6   1
    11     5    11   1
    12     6    12   1
    13    13    10   1
    14    14    13   1
    15    22    13   1
    16    15    14   1
    17    14    19   1
    18    16    15   1
    19    15    20   1
    20    16    17   1
    21    21    16   1
    22    17    18   1
    23    17    22   1
    24    45    21   1
    25    23    24   1
    26    23    32   1
    27    51    23   1
    28    24    25   1
    29    24    29   1
    30    25    26   1
    31    25    30   1
    32    27    26   1
    33    26    31   1
    34    27    28   1
    35    32    27   1
    36    28    33   1
    37    31    34   1
    38    34    35   1
    39    34    43   1
    40    35    36   1
    41    35    40   1
    42    36    37   1
    43    36    41   1
    44    38    37   1
    45    37    42   1
    46    38    39   1
    47    43    38   1
    48    39    44   1
    49    46    45   1
    50    45    53   1
    51    46    47   1
    52    48    46   1
    53    48    49   1
    54    50    48   1
    55    50    51   1
    56    50    52   1
    57    52    53   1
    58    52    54   1
    59    54    55   1
    60     1    56   1
    61     2    57   1
    62     3    58   1
    63     4    59   1
    64     5    60   1
    65     6    61   1
    66     6    62   1
    67     7    63   1
    68     8    64   1
    69     9    65   1
    70    12    66   1
    71    13    67   1
    72    14    68   1
    73    15    69   1
    74    16    70   1
    75    17    71   1
    76    18    72   1
    77    18    73   1
    78    18    74   1
    79    19    75   1
    80    20    76   1
    81    21    77   1
    82    21    78   1
    83    23    79   1
    84    24    80   1
    85    25    81   1
    86    26    82   1
    87    27    83   1
    88    28    84   1
    89    28    85   1
    90    29    86   1
    91    30    87   1
    92    33    88   1
    93    34    89   1
    94    35    90   1
    95    36    91   1
    96    37    92   1
    97    38    93   1
    98    39    94   1
    99    39    95   1
   100    40    96   1
   101    41    97   1
   102    42    98   1
   103    44    99   1
   104    45   100   1
   105    46   101   1
   106    47   102   1
   107    48   103   1
   108    49   104   1
   109    50   105   1
   110    52   106   1
   111    53   107   1
   112    53   108   1
   113    54   109   1
   114    54   110   1
   115    55   111   1
@<TRIPOS>SUBSTRUCTURE
     1  MOL      1

