@<TRIPOS>MOLECULE
1xd0_ligand_068
   111   115
SMALL
GAST_HUCK
****
This file was generated by PARSER (from files_GN.cpp)

@<TRIPOS>ATOM
      1 CR1         1.0842   14.4098   38.4019 C.3         1 MOL       0.1854
      2 CR2         0.6901   14.2994   39.8991 C.3         1 MOL       0.1339
      3 CR3         1.8205   14.8893   40.7840 C.3         1 MOL       0.1144
      4 CR4         3.1802   14.2018   40.4742 C.3         1 MOL       0.1184
      5 CR5         3.4774   14.2356   38.9430 C.3         1 MOL       0.1134
      6 CR6         4.6773   13.3306   38.5613 C.3         1 MOL       0.0730
      7 OR1         1.1413   15.7675   37.9580 O.3         1 MOL      -0.3649
      8 OR2        -0.5456   14.9746   40.1444 O.3         1 MOL      -0.3841
      9 OR3         1.5221   14.7425   42.1733 O.3         1 MOL      -0.3864
     10 OR4         4.3130   14.6020   41.2909 O.3         1 MOL      -0.3401
     11 OR5         2.3476   13.7578   38.1727 O.3         1 MOL      -0.3407
     12 OR6         5.2029   13.6824   37.2829 O.3         1 MOL      -0.3924
     13 CV1         4.4784   15.9006   41.9244 C.3         1 MOL       0.1886
     14 CV2         5.6095   16.7740   41.3091 C.3         1 MOL       0.1370
     15 CV3         7.0130   16.2497   41.7034 C.3         1 MOL       0.1304
     16 CV4         7.1288   16.0517   43.2491 C.3         1 MOL       0.0334
     17 CV5         5.9803   15.0957   43.7095 C.3         1 MOL       0.1038
     18 CV6         5.9373   14.8605   45.2347 C.3         1 MOL      -0.0332
     19 OV2         5.4690   16.8466   39.8948 O.3         1 MOL      -0.3840
     20 OV3         7.9903   17.1700   41.2161 O.3         1 MOL      -0.3834
     21 NV4         8.5031   15.5617   43.5790 N.4         1 MOL       0.2370
     22 OV5         4.7054   15.6719   43.3371 O.3         1 MOL      -0.3401
     23 CQ1        13.4807   17.7735   41.4793 C.3         1 MOL       0.1883
     24 CQ2        13.0918   18.2999   40.0675 C.3         1 MOL       0.1341
     25 CQ3        13.2127   17.1722   39.0045 C.3         1 MOL       0.1144
     26 CQ4        14.6092   16.4906   39.0595 C.3         1 MOL       0.1184
     27 CQ5        14.9609   16.0833   40.5219 C.3         1 MOL       0.1134
     28 CQ6        16.4215   15.5850   40.6675 C.3         1 MOL       0.0730
     29 OQ2        11.7646   18.8350   40.0792 O.3         1 MOL      -0.3841
     30 OQ3        13.0092   17.6951   37.6913 O.3         1 MOL      -0.3864
     31 OQ4        14.5714   15.2773   38.2700 O.3         1 MOL      -0.3401
     32 OQ5        14.7976   17.1918   41.4371 O.3         1 MOL      -0.3405
     33 OQ6        16.5343   14.6840   41.7698 O.3         1 MOL      -0.3924
     34 CW1        15.3807   15.1835   37.0776 C.3         1 MOL       0.1884
     35 CW2        14.5683   15.6154   35.8247 C.3         1 MOL       0.1341
     36 CW3        15.3379   15.2742   34.5197 C.3         1 MOL       0.1141
     37 CW4        15.8398   13.8019   34.5102 C.3         1 MOL       0.1119
     38 CW5        16.5917   13.4260   35.8263 C.3         1 MOL       0.1130
     39 CW6        18.0737   13.9014   35.9548 C.3         1 MOL       0.0730
     40 OW2        13.2760   15.0056   35.8325 O.3         1 MOL      -0.3841
     41 OW3        16.4398   16.1725   34.3731 O.3         1 MOL      -0.3864
     42 OW4        14.7220   12.9227   34.3477 O.3         1 MOL      -0.3865
     43 OW5        15.7959   13.7997   36.9788 O.3         1 MOL      -0.3405
     44 OW6        18.6396   14.3102   34.7061 O.3         1 MOL      -0.3924
     45 CY1         9.3099   16.2102   44.6625 C.3         1 MOL       0.0073
     46 CY2         9.7429   17.6844   44.3958 C.3         1 MOL       0.1257
     47 OY2         8.6009   18.5127   44.1805 O.3         1 MOL      -0.3835
     48 CY3        10.7144   17.8109   43.1850 C.3         1 MOL       0.1127
     49 OY3        11.1946   19.1554   43.0999 O.3         1 MOL      -0.3864
     50 CY4        11.9498   16.8644   43.2646 C.3         1 MOL       0.0953
     51 OY4        12.5459   16.7736   41.9490 O.3         1 MOL      -0.3424
     52 CY5        11.5870   15.4073   43.7089 C.3         1 MOL       0.0162
     53 CY6        10.5995   15.3742   44.9175 C.3         1 MOL       0.0002
     54 CY7        12.8637   14.5607   43.9861 C.3         1 MOL       0.0497
     55 OY7        13.7492   15.1725   44.9225 O.3         1 MOL      -0.3946
     56 H1          0.3281   13.8954   37.8036 H           1 MOL       0.0935
     57 H2          0.5534   13.2390   40.1493 H           1 MOL       0.0671
     58 H3          1.8840   15.9577   40.5620 H           1 MOL       0.0648
     59 H4          3.0378   13.1508   40.7257 H           1 MOL       0.0651
     60 H5          3.7018   15.2579   38.6335 H           1 MOL       0.0647
     61 H6          4.3589   12.2842   38.5288 H           1 MOL       0.0584
     62 H7          5.4825   13.4211   39.2954 H           1 MOL       0.0584
     63 H8          0.2317   16.1160   38.0709 H           1 MOL       0.2126
     64 H9         -0.9763   14.4536   40.8559 H           1 MOL       0.2101
     65 H10         0.8163   15.3995   42.3598 H           1 MOL       0.2100
     66 H11         4.4724   13.5135   36.6498 H           1 MOL       0.2095
     67 H12         3.5572   16.4877   41.8817 H           1 MOL       0.0938
     68 H13         5.4946   17.7889   41.7010 H           1 MOL       0.0672
     69 H14         7.1876   15.2929   41.1987 H           1 MOL       0.0679
     70 H15         6.9445   17.0148   43.7280 H           1 MOL       0.0903
     71 H16         6.1029   14.1215   43.2250 H           1 MOL       0.0652
     72 H17         5.0859   14.2256   45.4793 H           1 MOL       0.0257
     73 H18         5.8335   15.8082   45.7644 H           1 MOL       0.0257
     74 H19         6.8420   14.3589   45.5734 H           1 MOL       0.0257
     75 H20         6.0607   17.5711   39.6133 H           1 MOL       0.2101
     76 H21         7.8214   18.0112   41.6913 H           1 MOL       0.2102
     77 H22         9.0657   15.6098   42.7241 H           1 MOL       0.2022
     78 H23         8.4121   14.5716   43.8219 H           1 MOL       0.2022
     79 H24        13.5385   18.6296   42.1562 H           1 MOL       0.0938
     80 H25        13.7764   19.1137   39.8007 H           1 MOL       0.0671
     81 H26        12.4376   16.4222   39.1911 H           1 MOL       0.0648
     82 H27        15.3562   17.2169   38.7135 H           1 MOL       0.0651
     83 H28        14.3035   15.2589   40.8196 H           1 MOL       0.0647
     84 H29        17.0967   16.4330   40.8284 H           1 MOL       0.0584
     85 H30        16.7422   15.0498   39.7697 H           1 MOL       0.0584
     86 H31        11.6459   19.2756   39.2077 H           1 MOL       0.2101
     87 H32        12.2835   18.3522   37.7522 H           1 MOL       0.2100
     88 H33        16.3145   15.2213   42.5620 H           1 MOL       0.2095
     89 H34        16.2712   15.8140   37.1684 H           1 MOL       0.0938
     90 H35        14.4097   16.6963   35.8591 H           1 MOL       0.0671
     91 H36        14.6696   15.4357   33.6655 H           1 MOL       0.0648
     92 H37        16.4884   13.6481   33.6437 H           1 MOL       0.0647
     93 H38        16.6423   12.3347   35.8433 H           1 MOL       0.0647
     94 H39        18.6798   13.0720   36.3418 H           1 MOL       0.0584
     95 H40        18.1724   14.7347   36.6565 H           1 MOL       0.0584
     96 H41        13.4387   14.0399   35.8531 H           1 MOL       0.2101
     97 H42        16.8250   15.9734   33.4931 H           1 MOL       0.2100
     98 H43        14.3553   13.1194   33.4591 H           1 MOL       0.2100
     99 H44        19.5279   14.6664   34.9431 H           1 MOL       0.2095
    100 H45         8.7221   16.1898   45.5800 H           1 MOL       0.0877
    101 H46        10.2578   18.0621   45.2886 H           1 MOL       0.0677
    102 H47         8.9333   19.4312   44.1324 H           1 MOL       0.2102
    103 H48        10.1663   17.5873   42.2644 H           1 MOL       0.0647
    104 H49        10.4915   19.6612   42.6515 H           1 MOL       0.2100
    105 H50        12.6632   17.2780   43.9881 H           1 MOL       0.0627
    106 H51        11.0777   14.9256   42.8688 H           1 MOL       0.0351
    107 H52        10.3173   14.3406   45.1299 H           1 MOL       0.0325
    108 H53        11.1039   15.7564   45.8091 H           1 MOL       0.0325
    109 H54        13.4175   14.4193   43.0570 H           1 MOL       0.0561
    110 H55        12.5884   13.5737   44.3577 H           1 MOL       0.0561
    111 H56        13.2893   15.1635   45.7894 H           1 MOL       0.2094
@<TRIPOS>BOND
     1     2     1   1
     2     1     7   1
     3    11     1   1
     4     3     2   1
     5     2     8   1
     6     4     3   1
     7     3     9   1
     8     4     5   1
     9    10     4   1
    10     5     6   1
    11     5    11   1
    12     6    12   1
    13    13    10   1
    14    14    13   1
    15    22    13   1
    16    15    14   1
    17    14    19   1
    18    16    15   1
    19    15    20   1
    20    16    17   1
    21    21    16   1
    22    17    18   1
    23    17    22   1
    24    45    21   1
    25    23    24   1
    26    23    32   1
    27    51    23   1
    28    24    25   1
    29    24    29   1
    30    25    26   1
    31    25    30   1
    32    27    26   1
    33    26    31   1
    34    27    28   1
    35    32    27   1
    36    28    33   1
    37    31    34   1
    38    34    35   1
    39    34    43   1
    40    35    36   1
    41    35    40   1
    42    36    37   1
    43    36    41   1
    44    38    37   1
    45    37    42   1
    46    38    39   1
    47    43    38   1
    48    39    44   1
    49    46    45   1
    50    45    53   1
    51    46    47   1
    52    48    46   1
    53    48    49   1
    54    50    48   1
    55    50    51   1
    56    50    52   1
    57    52    53   1
    58    52    54   1
    59    54    55   1
    60     1    56   1
    61     2    57   1
    62     3    58   1
    63     4    59   1
    64     5    60   1
    65     6    61   1
    66     6    62   1
    67     7    63   1
    68     8    64   1
    69     9    65   1
    70    12    66   1
    71    13    67   1
    72    14    68   1
    73    15    69   1
    74    16    70   1
    75    17    71   1
    76    18    72   1
    77    18    73   1
    78    18    74   1
    79    19    75   1
    80    20    76   1
    81    21    77   1
    82    21    78   1
    83    23    79   1
    84    24    80   1
    85    25    81   1
    86    26    82   1
    87    27    83   1
    88    28    84   1
    89    28    85   1
    90    29    86   1
    91    30    87   1
    92    33    88   1
    93    34    89   1
    94    35    90   1
    95    36    91   1
    96    37    92   1
    97    38    93   1
    98    39    94   1
    99    39    95   1
   100    40    96   1
   101    41    97   1
   102    42    98   1
   103    44    99   1
   104    45   100   1
   105    46   101   1
   106    47   102   1
   107    48   103   1
   108    49   104   1
   109    50   105   1
   110    52   106   1
   111    53   107   1
   112    53   108   1
   113    54   109   1
   114    54   110   1
   115    55   111   1
@<TRIPOS>SUBSTRUCTURE
     1  MOL      1

