@<TRIPOS>MOLECULE
1yc1_ligand_000
    42    45
SMALL
GAST_HUCK
****
This file was generated by PARSER (from files_GN.cpp)

@<TRIPOS>ATOM
      1 C15         3.5982   33.2064   -3.5767 C.ar        1 MOL      -0.0397
      2 C12         2.9908   32.1628   -2.8560 C.ar        1 MOL       0.1203
      3 O17         3.3578   30.8682   -2.8374 O.3         1 MOL      -0.2917
      4 C19         2.4246   30.3090   -1.8935 C.3         1 MOL       0.1865
      5 O18         1.4534   31.2763   -1.4499 O.3         1 MOL      -0.2923
      6 C16         1.8772   32.3950   -2.0664 C.ar        1 MOL       0.1209
      7 C22         1.3041   33.6781   -1.9913 C.ar        1 MOL      -0.0435
      8 C20         1.8978   34.7346   -2.7093 C.ar        1 MOL      -0.0793
      9 C8          3.0531   34.5100   -3.4973 C.ar        1 MOL      -0.0502
     10 C4          3.6488   35.5763   -4.2048 C.2         1 MOL       0.0106
     11 C1          3.1148   36.1819   -5.3455 C.2         1 MOL       0.1253
     12 C7          1.9246   35.9106   -6.0480 C.2         1 MOL       0.0928
     13 O21         1.5904   36.6445   -7.1324 O.co2       1 MOL      -0.5584
     14 O23         1.0866   34.9140   -5.6871 O.co2       1 MOL      -0.5584
     15 N5          3.9929   37.1193   -5.7226 N.pl3       1 MOL      -0.2108
     16 C2          4.8757   36.2182   -3.9592 C.2         1 MOL       0.0398
     17 N3          5.0101   37.1486   -4.9263 N.2         1 MOL      -0.2144
     18 C6          5.8511   36.0257   -2.9274 C.ar        1 MOL       0.0020
     19 C10         5.5074   35.4302   -1.6874 C.ar        1 MOL      -0.0679
     20 C14         6.4592   35.1840   -0.6681 C.ar        1 MOL      -0.0234
     21 C26         6.0692   34.4717    0.5828 C.3         1 MOL      -0.0285
     22 C27         6.1310   35.3629    1.8444 C.3         1 MOL      -0.0583
     23 C13         7.7953   35.5940   -0.8855 C.ar        1 MOL       0.0829
     24 O25         8.7813   35.3490    0.0142 O.3         1 MOL      -0.3383
     25 C11         8.1507   36.2429   -2.0788 C.ar        1 MOL      -0.0091
     26 C9          7.2006   36.4442   -3.0973 C.ar        1 MOL       0.0835
     27 O24         7.6626   37.0335   -4.2319 O.3         1 MOL      -0.3373
     28 H1          4.4141   33.0068   -4.1558 H           1 MOL       0.0474
     29 H2          2.9771   29.9271   -1.0307 H           1 MOL       0.0973
     30 H3          1.9012   29.4742   -2.3616 H           1 MOL       0.0973
     31 H4          0.4686   33.8366   -1.4263 H           1 MOL       0.0506
     32 H5          1.4826   35.6685   -2.6488 H           1 MOL       0.0470
     33 H6          3.8794   37.7001   -6.4915 H           1 MOL       0.2580
     34 H7          4.5399   35.1785   -1.4999 H           1 MOL       0.0500
     35 H8          6.7288   33.6105    0.7203 H           1 MOL       0.0381
     36 H9          5.0520   34.0762    0.5004 H           1 MOL       0.0381
     37 H10         5.8294   34.7840    2.7189 H           1 MOL       0.0247
     38 H11         5.4588   36.2170    1.7379 H           1 MOL       0.0247
     39 H12         7.1428   35.7281    2.0154 H           1 MOL       0.0247
     40 H13         8.8474   34.3704    0.0630 H           1 MOL       0.2463
     41 H14         9.1202   36.5396   -2.2191 H           1 MOL       0.0450
     42 H15         7.3827   36.4446   -4.9638 H           1 MOL       0.2473
@<TRIPOS>BOND
     1     1     2  ar
     2     1     9  ar
     3     2     3   1
     4     2     6  ar
     5     3     4   1
     6     4     5   1
     7     5     6   1
     8     6     7  ar
     9     7     8  ar
    10     8     9  ar
    11     9    10   1
    12    10    11   2
    13    10    16   1
    14    11    12   1
    15    11    15   1
    16    12    13  ar
    17    12    14  ar
    18    15    17   1
    19    16    17   2
    20    16    18   1
    21    18    19  ar
    22    18    26  ar
    23    19    20  ar
    24    20    21   1
    25    20    23  ar
    26    21    22   1
    27    23    24   1
    28    23    25  ar
    29    25    26  ar
    30    26    27   1
    31     1    28   1
    32     4    29   1
    33     4    30   1
    34     7    31   1
    35     8    32   1
    36    15    33   1
    37    19    34   1
    38    21    35   1
    39    21    36   1
    40    22    37   1
    41    22    38   1
    42    22    39   1
    43    24    40   1
    44    25    41   1
    45    27    42   1
@<TRIPOS>SUBSTRUCTURE
     1  MOL      1

