@<TRIPOS>MOLECULE
1yc1_ligand_010
    42    45
SMALL
GAST_HUCK
****
This file was generated by PARSER (from files_GN.cpp)

@<TRIPOS>ATOM
      1 C15         2.3013   34.2799   -9.1250 C.ar        1 MOL      -0.0397
      2 C12         2.0281   34.1082  -10.4971 C.ar        1 MOL       0.1203
      3 O17         2.6115   33.2615  -11.3747 O.3         1 MOL      -0.2917
      4 C19         2.1364   33.7822  -12.6300 C.3         1 MOL       0.1865
      5 O18         0.9678   34.5977  -12.4413 O.3         1 MOL      -0.2923
      6 C16         1.0600   34.8782  -11.1274 C.ar        1 MOL       0.1209
      7 C22         0.3228   35.8376  -10.4201 C.ar        1 MOL      -0.0435
      8 C20         0.5738   36.0056   -9.0441 C.ar        1 MOL      -0.0793
      9 C8          1.5616   35.2351   -8.3851 C.ar        1 MOL      -0.0502
     10 C4          1.8789   35.5155   -7.0336 C.2         1 MOL       0.0106
     11 C1          2.8729   36.4214   -6.6461 C.2         1 MOL       0.1253
     12 C7          3.7301   37.2310   -7.4182 C.2         1 MOL       0.0928
     13 O21         4.7577   37.8990   -6.8420 O.co2       1 MOL      -0.5584
     14 O23         3.6206   37.3127   -8.7629 O.co2       1 MOL      -0.5584
     15 N5          2.9144   36.3939   -5.3091 N.pl3       1 MOL      -0.2108
     16 C2          1.3478   34.9818   -5.8452 C.2         1 MOL       0.0398
     17 N3          2.0356   35.5712   -4.8439 N.2         1 MOL      -0.2144
     18 C6          0.3039   34.0453   -5.5450 C.ar        1 MOL       0.0020
     19 C10         0.3277   33.3534   -4.3059 C.ar        1 MOL      -0.0679
     20 C14        -0.7265   32.5113   -3.8798 C.ar        1 MOL      -0.0234
     21 C26        -0.6603   31.8653   -2.5390 C.3         1 MOL      -0.0285
     22 C27        -0.7814   32.8936   -1.3891 C.3         1 MOL      -0.0583
     23 C13        -1.8247   32.3081   -4.7472 C.ar        1 MOL       0.0829
     24 O25        -2.8606   31.4920   -4.4449 O.3         1 MOL      -0.3383
     25 C11        -1.8547   32.9523   -5.9946 C.ar        1 MOL      -0.0091
     26 C9         -0.8223   33.8234   -6.3831 C.ar        1 MOL       0.0835
     27 O24        -1.0254   34.4986   -7.5413 O.3         1 MOL      -0.3373
     28 H1          3.0488   33.7348   -8.6868 H           1 MOL       0.0474
     29 H2          1.9019   32.9586  -13.3067 H           1 MOL       0.0973
     30 H3          2.9199   34.3873  -13.0953 H           1 MOL       0.0973
     31 H4         -0.3812   36.4063  -10.8955 H           1 MOL       0.0506
     32 H5          0.0374   36.7056   -8.5319 H           1 MOL       0.0470
     33 H6          3.5186   36.9215   -4.7602 H           1 MOL       0.2580
     34 H7          1.1289   33.4697   -3.6809 H           1 MOL       0.0500
     35 H8          0.2850   31.3199   -2.4391 H           1 MOL       0.0381
     36 H9         -1.4611   31.1324   -2.4038 H           1 MOL       0.0381
     37 H10        -0.8300   32.3714   -0.4300 H           1 MOL       0.0247
     38 H11        -1.6896   33.4915   -1.5057 H           1 MOL       0.0247
     39 H12         0.0853   33.5587   -1.3778 H           1 MOL       0.0247
     40 H13        -3.3993   31.9291   -3.7512 H           1 MOL       0.2463
     41 H14        -2.6651   32.8226   -6.6075 H           1 MOL       0.0450
     42 H15        -0.8864   33.8195   -8.2394 H           1 MOL       0.2473
@<TRIPOS>BOND
     1     1     2  ar
     2     1     9  ar
     3     2     3   1
     4     2     6  ar
     5     3     4   1
     6     4     5   1
     7     5     6   1
     8     6     7  ar
     9     7     8  ar
    10     8     9  ar
    11     9    10   1
    12    10    11   2
    13    10    16   1
    14    11    12   1
    15    11    15   1
    16    12    13  ar
    17    12    14  ar
    18    15    17   1
    19    16    17   2
    20    16    18   1
    21    18    19  ar
    22    18    26  ar
    23    19    20  ar
    24    20    21   1
    25    20    23  ar
    26    21    22   1
    27    23    24   1
    28    23    25  ar
    29    25    26  ar
    30    26    27   1
    31     1    28   1
    32     4    29   1
    33     4    30   1
    34     7    31   1
    35     8    32   1
    36    15    33   1
    37    19    34   1
    38    21    35   1
    39    21    36   1
    40    22    37   1
    41    22    38   1
    42    22    39   1
    43    24    40   1
    44    25    41   1
    45    27    42   1
@<TRIPOS>SUBSTRUCTURE
     1  MOL      1

