@<TRIPOS>MOLECULE
1yc1_ligand_046
    42    45
SMALL
GAST_HUCK
****
This file was generated by PARSER (from files_GN.cpp)

@<TRIPOS>ATOM
      1 C15         3.5817   42.2070   -5.3929 C.ar        1 MOL      -0.0397
      2 C12         2.4723   43.0457   -5.1980 C.ar        1 MOL       0.1203
      3 O17         2.1525   44.1490   -5.8970 O.3         1 MOL      -0.2917
      4 C19         1.0565   44.6724   -5.1271 C.3         1 MOL       0.1865
      5 O18         0.5513   43.6975   -4.1925 O.3         1 MOL      -0.2923
      6 C16         1.5302   42.7737   -4.2089 C.ar        1 MOL       0.1209
      7 C22         1.6884   41.6631   -3.3603 C.ar        1 MOL      -0.0435
      8 C20         2.8012   40.8164   -3.5346 C.ar        1 MOL      -0.0793
      9 C8          3.7501   41.0774   -4.5564 C.ar        1 MOL      -0.0502
     10 C4          4.8848   40.2390   -4.7108 C.2         1 MOL       0.0106
     11 C1          5.0253   39.1587   -5.5902 C.2         1 MOL       0.1253
     12 C7          4.1629   38.7524   -6.6256 C.2         1 MOL       0.0928
     13 O21         3.8062   39.6319   -7.5938 O.co2       1 MOL      -0.5584
     14 O23         3.8790   37.4345   -6.7994 O.co2       1 MOL      -0.5584
     15 N5          6.1765   38.5331   -5.2569 N.pl3       1 MOL      -0.2108
     16 C2          5.9961   40.1827   -3.8638 C.2         1 MOL       0.0398
     17 N3          6.7583   39.1311   -4.2515 N.2         1 MOL      -0.2144
     18 C6          6.3210   41.0502   -2.7829 C.ar        1 MOL       0.0020
     19 C10         6.2077   42.4516   -2.9310 C.ar        1 MOL      -0.0679
     20 C14         6.4974   43.3344   -1.8694 C.ar        1 MOL      -0.0234
     21 C26         6.3212   44.7990   -2.0587 C.3         1 MOL      -0.0285
     22 C27         7.5997   45.4680   -2.6101 C.3         1 MOL      -0.0583
     23 C13         6.9554   42.8023   -0.6433 C.ar        1 MOL       0.0829
     24 O25         7.2872   43.6148    0.3970 O.3         1 MOL      -0.3383
     25 C11         7.1060   41.4078   -0.4913 C.ar        1 MOL      -0.0091
     26 C9          6.8156   40.5366   -1.5548 C.ar        1 MOL       0.0835
     27 O24         6.9986   39.2073   -1.3385 O.3         1 MOL      -0.3373
     28 H1          4.2688   42.4429   -6.1097 H           1 MOL       0.0474
     29 H2          0.2526   44.9842   -5.8041 H           1 MOL       0.0973
     30 H3          1.3950   45.5596   -4.5760 H           1 MOL       0.0973
     31 H4          0.9997   41.4785   -2.6315 H           1 MOL       0.0506
     32 H5          2.9139   40.0190   -2.9125 H           1 MOL       0.0470
     33 H6          6.5468   37.7601   -5.7046 H           1 MOL       0.2580
     34 H7          5.9049   42.8351   -3.8241 H           1 MOL       0.0500
     35 H8          6.0455   45.2866   -1.1168 H           1 MOL       0.0381
     36 H9          5.4938   45.0013   -2.7478 H           1 MOL       0.0381
     37 H10         7.4261   46.5441   -2.7430 H           1 MOL       0.0247
     38 H11         7.8618   45.0439   -3.5796 H           1 MOL       0.0247
     39 H12         8.4357   45.3314   -1.9185 H           1 MOL       0.0247
     40 H13         6.6942   43.3429    1.1398 H           1 MOL       0.2463
     41 H14         7.4358   41.0413    0.3943 H           1 MOL       0.0450
     42 H15         6.0861   38.8297   -1.2844 H           1 MOL       0.2473
@<TRIPOS>BOND
     1     1     2  ar
     2     1     9  ar
     3     2     3   1
     4     2     6  ar
     5     3     4   1
     6     4     5   1
     7     5     6   1
     8     6     7  ar
     9     7     8  ar
    10     8     9  ar
    11     9    10   1
    12    10    11   2
    13    10    16   1
    14    11    12   1
    15    11    15   1
    16    12    13  ar
    17    12    14  ar
    18    15    17   1
    19    16    17   2
    20    16    18   1
    21    18    19  ar
    22    18    26  ar
    23    19    20  ar
    24    20    21   1
    25    20    23  ar
    26    21    22   1
    27    23    24   1
    28    23    25  ar
    29    25    26  ar
    30    26    27   1
    31     1    28   1
    32     4    29   1
    33     4    30   1
    34     7    31   1
    35     8    32   1
    36    15    33   1
    37    19    34   1
    38    21    35   1
    39    21    36   1
    40    22    37   1
    41    22    38   1
    42    22    39   1
    43    24    40   1
    44    25    41   1
    45    27    42   1
@<TRIPOS>SUBSTRUCTURE
     1  MOL      1

