@<TRIPOS>MOLECULE
1yc1_ligand_007
    42    45
SMALL
GAST_HUCK
****
This file was generated by PARSER (from files_GN.cpp)

@<TRIPOS>ATOM
      1 C15         3.0424   36.1302   -1.7059 C.ar        1 MOL      -0.0397
      2 C12         2.5261   34.8232   -1.7052 C.ar        1 MOL       0.1203
      3 O17         1.3749   34.4071   -2.2627 O.3         1 MOL      -0.2917
      4 C19         1.3652   33.0091   -1.9177 C.3         1 MOL       0.1865
      5 O18         2.5300   32.6235   -1.1616 O.3         1 MOL      -0.2923
      6 C16         3.2002   33.7897   -1.0717 C.ar        1 MOL       0.1209
      7 C22         4.4186   34.0259   -0.4129 C.ar        1 MOL      -0.0435
      8 C20         4.9639   35.3254   -0.4269 C.ar        1 MOL      -0.0793
      9 C8          4.2778   36.3897   -1.0653 C.ar        1 MOL      -0.0502
     10 C4          4.8354   37.6928   -1.0784 C.2         1 MOL       0.0106
     11 C1          5.9066   38.1603   -1.8482 C.2         1 MOL       0.1253
     12 C7          6.6992   37.4945   -2.8103 C.2         1 MOL       0.0928
     13 O21         6.3412   36.3107   -3.3599 O.co2       1 MOL      -0.5584
     14 O23         7.7744   38.1199   -3.3416 O.co2       1 MOL      -0.5584
     15 N5          6.0376   39.4670   -1.5566 N.pl3       1 MOL      -0.2108
     16 C2          4.3786   38.8023   -0.3575 C.2         1 MOL       0.0398
     17 N3          5.1440   39.8530   -0.7040 N.2         1 MOL      -0.2144
     18 C6          3.3374   38.8809    0.6016 C.ar        1 MOL       0.0020
     19 C10         2.4165   39.9515    0.5255 C.ar        1 MOL      -0.0679
     20 C14         1.3744   40.1023    1.4667 C.ar        1 MOL      -0.0234
     21 C26         0.4252   41.2425    1.3348 C.3         1 MOL      -0.0285
     22 C27         0.7906   42.4092    2.2811 C.3         1 MOL      -0.0583
     23 C13         1.2692   39.1672    2.5224 C.ar        1 MOL       0.0829
     24 O25         0.2945   39.2937    3.4646 O.3         1 MOL      -0.3383
     25 C11         2.1776   38.0912    2.6037 C.ar        1 MOL      -0.0091
     26 C9          3.2029   37.9364    1.6492 C.ar        1 MOL       0.0835
     27 O24         4.0573   36.8877    1.8061 O.3         1 MOL      -0.3373
     28 H1          2.5260   36.8670   -2.1879 H           1 MOL       0.0474
     29 H2          1.3214   32.4182   -2.8353 H           1 MOL       0.0973
     30 H3          0.4705   32.7964   -1.3284 H           1 MOL       0.0973
     31 H4          4.9066   33.2628    0.0581 H           1 MOL       0.0506
     32 H5          5.8584   35.4898    0.0395 H           1 MOL       0.0470
     33 H6          6.6917   40.0614   -1.9585 H           1 MOL       0.2580
     34 H7          2.4892   40.6239   -0.2416 H           1 MOL       0.0500
     35 H8         -0.5887   40.9089    1.5599 H           1 MOL       0.0381
     36 H9          0.4094   41.6137    0.3044 H           1 MOL       0.0381
     37 H10         0.0869   43.2307    2.1372 H           1 MOL       0.0247
     38 H11         1.8003   42.7719    2.0744 H           1 MOL       0.0247
     39 H12         0.7373   42.0892    3.3230 H           1 MOL       0.0247
     40 H13         0.7325   39.1472    4.3322 H           1 MOL       0.2463
     41 H14         2.0877   37.4257    3.3760 H           1 MOL       0.0450
     42 H15         4.9645   37.2532    1.7303 H           1 MOL       0.2473
@<TRIPOS>BOND
     1     1     2  ar
     2     1     9  ar
     3     2     3   1
     4     2     6  ar
     5     3     4   1
     6     4     5   1
     7     5     6   1
     8     6     7  ar
     9     7     8  ar
    10     8     9  ar
    11     9    10   1
    12    10    11   2
    13    10    16   1
    14    11    12   1
    15    11    15   1
    16    12    13  ar
    17    12    14  ar
    18    15    17   1
    19    16    17   2
    20    16    18   1
    21    18    19  ar
    22    18    26  ar
    23    19    20  ar
    24    20    21   1
    25    20    23  ar
    26    21    22   1
    27    23    24   1
    28    23    25  ar
    29    25    26  ar
    30    26    27   1
    31     1    28   1
    32     4    29   1
    33     4    30   1
    34     7    31   1
    35     8    32   1
    36    15    33   1
    37    19    34   1
    38    21    35   1
    39    21    36   1
    40    22    37   1
    41    22    38   1
    42    22    39   1
    43    24    40   1
    44    25    41   1
    45    27    42   1
@<TRIPOS>SUBSTRUCTURE
     1  MOL      1

