@<TRIPOS>MOLECULE
1yc1_ligand_022
    42    45
SMALL
GAST_HUCK
****
This file was generated by PARSER (from files_GN.cpp)

@<TRIPOS>ATOM
      1 C15         3.4837   36.9706    0.4886 C.ar        1 MOL      -0.0397
      2 C12         3.1725   38.2135    1.0586 C.ar        1 MOL       0.1203
      3 O17         3.5633   38.6815    2.2524 O.3         1 MOL      -0.2917
      4 C19         2.8028   39.9012    2.3539 C.3         1 MOL       0.1865
      5 O18         2.1741   40.2487    1.0996 O.3         1 MOL      -0.2923
      6 C16         2.3705   39.1225    0.3848 C.ar        1 MOL       0.1209
      7 C22         1.8664   38.8341   -0.8975 C.ar        1 MOL      -0.0435
      8 C20         2.1782   37.5905   -1.4846 C.ar        1 MOL      -0.0793
      9 C8          2.9768   36.6373   -0.7971 C.ar        1 MOL      -0.0502
     10 C4          3.2973   35.3749   -1.3673 C.2         1 MOL       0.0106
     11 C1          2.4215   34.3822   -1.8159 C.2         1 MOL       0.1253
     12 C7          1.0153   34.3675   -1.9263 C.2         1 MOL       0.0928
     13 O21         0.3219   35.3556   -2.5525 O.co2       1 MOL      -0.5584
     14 O23         0.3039   33.2977   -1.4696 O.co2       1 MOL      -0.5584
     15 N5          3.1618   33.3015   -2.0904 N.pl3       1 MOL      -0.2108
     16 C2          4.5638   34.7902   -1.4303 C.2         1 MOL       0.0398
     17 N3          4.4092   33.5344   -1.8751 N.2         1 MOL      -0.2144
     18 C6          5.8310   35.3399   -1.1138 C.ar        1 MOL       0.0020
     19 C10         6.2404   36.5396   -1.7404 C.ar        1 MOL      -0.0679
     20 C14         7.5237   37.0998   -1.5170 C.ar        1 MOL      -0.0234
     21 C26         7.9316   38.3277   -2.2680 C.3         1 MOL      -0.0285
     22 C27         7.1850   39.5976   -1.8066 C.3         1 MOL      -0.0583
     23 C13         8.4093   36.4280   -0.6360 C.ar        1 MOL       0.0829
     24 O25         9.6613   36.8953   -0.3956 O.3         1 MOL      -0.3383
     25 C11         8.0082   35.2432    0.0030 C.ar        1 MOL      -0.0091
     26 C9          6.7329   34.6950   -0.2359 C.ar        1 MOL       0.0835
     27 O24         6.3719   33.5563    0.4079 O.3         1 MOL      -0.3373
     28 H1          4.0599   36.3198    1.0236 H           1 MOL       0.0474
     29 H2          3.4726   40.7103    2.6505 H           1 MOL       0.0973
     30 H3          2.0345   39.7861    3.1187 H           1 MOL       0.0973
     31 H4          1.2933   39.5125   -1.3966 H           1 MOL       0.0506
     32 H5          1.8303   37.3788   -2.4213 H           1 MOL       0.0470
     33 H6          2.8113   32.4540   -2.4046 H           1 MOL       0.2580
     34 H7          5.6080   37.0053   -2.4115 H           1 MOL       0.0500
     35 H8          7.7556   38.1660   -3.3304 H           1 MOL       0.0381
     36 H9          9.0042   38.5291   -2.1502 H           1 MOL       0.0381
     37 H10         7.5207   40.4499   -2.4008 H           1 MOL       0.0247
     38 H11         7.3936   39.7944   -0.7550 H           1 MOL       0.0247
     39 H12         6.1030   39.4855   -1.9362 H           1 MOL       0.0247
     40 H13        10.2635   36.2825   -0.9023 H           1 MOL       0.2463
     41 H14         8.6646   34.7686    0.6277 H           1 MOL       0.0450
     42 H15         6.9539   32.8380    0.0427 H           1 MOL       0.2473
@<TRIPOS>BOND
     1     1     2  ar
     2     1     9  ar
     3     2     3   1
     4     2     6  ar
     5     3     4   1
     6     4     5   1
     7     5     6   1
     8     6     7  ar
     9     7     8  ar
    10     8     9  ar
    11     9    10   1
    12    10    11   2
    13    10    16   1
    14    11    12   1
    15    11    15   1
    16    12    13  ar
    17    12    14  ar
    18    15    17   1
    19    16    17   2
    20    16    18   1
    21    18    19  ar
    22    18    26  ar
    23    19    20  ar
    24    20    21   1
    25    20    23  ar
    26    21    22   1
    27    23    24   1
    28    23    25  ar
    29    25    26  ar
    30    26    27   1
    31     1    28   1
    32     4    29   1
    33     4    30   1
    34     7    31   1
    35     8    32   1
    36    15    33   1
    37    19    34   1
    38    21    35   1
    39    21    36   1
    40    22    37   1
    41    22    38   1
    42    22    39   1
    43    24    40   1
    44    25    41   1
    45    27    42   1
@<TRIPOS>SUBSTRUCTURE
     1  MOL      1

