@<TRIPOS>MOLECULE
1yc1_ligand_011
    42    45
SMALL
GAST_HUCK
****
This file was generated by PARSER (from files_GN.cpp)

@<TRIPOS>ATOM
      1 C15         3.6916   38.2357    0.0258 C.ar        1 MOL      -0.0397
      2 C12         3.4836   39.5991    0.3080 C.ar        1 MOL       0.1203
      3 O17         2.6008   40.1344    1.1756 O.3         1 MOL      -0.2917
      4 C19         2.9502   41.5311    1.1310 C.3         1 MOL       0.1865
      5 O18         3.8675   41.8164    0.0588 O.3         1 MOL      -0.2923
      6 C16         4.2263   40.5804   -0.3305 C.ar        1 MOL       0.1209
      7 C22         5.2220   40.2346   -1.2577 C.ar        1 MOL      -0.0435
      8 C20         5.4608   38.8737   -1.5205 C.ar        1 MOL      -0.0793
      9 C8          4.7041   37.8533   -0.8895 C.ar        1 MOL      -0.0502
     10 C4          5.0103   36.4851   -1.1199 C.2         1 MOL       0.0106
     11 C1          5.2645   35.4963   -0.1692 C.2         1 MOL       0.1253
     12 C7          5.2247   35.5695    1.2295 C.2         1 MOL       0.0928
     13 O21         6.2963   35.1665    1.9481 O.co2       1 MOL      -0.5584
     14 O23         4.0195   35.5498    1.8392 O.co2       1 MOL      -0.5584
     15 N5          5.6209   34.3844   -0.8257 N.pl3       1 MOL      -0.2108
     16 C2          5.2484   35.8456   -2.3429 C.2         1 MOL       0.0398
     17 N3          5.5963   34.5711   -2.1040 N.2         1 MOL      -0.2144
     18 C6          5.0930   36.3600   -3.6469 C.ar        1 MOL       0.0020
     19 C10         3.8908   36.1317   -4.3447 C.ar        1 MOL      -0.0679
     20 C14         3.6694   36.6735   -5.6337 C.ar        1 MOL      -0.0234
     21 C26         2.4047   36.3457   -6.3513 C.3         1 MOL      -0.0285
     22 C27         1.2707   37.3293   -5.9883 C.3         1 MOL      -0.0583
     23 C13         4.6685   37.5122   -6.1942 C.ar        1 MOL       0.0829
     24 O25         4.5337   38.1324   -7.3994 O.3         1 MOL      -0.3383
     25 C11         5.8816   37.7196   -5.5081 C.ar        1 MOL      -0.0091
     26 C9          6.1216   37.1020   -4.2682 C.ar        1 MOL       0.0835
     27 O24         7.3560   37.2307   -3.7057 O.3         1 MOL      -0.3373
     28 H1          3.0992   37.5415    0.4852 H           1 MOL       0.0474
     29 H2          3.4125   41.8209    2.0791 H           1 MOL       0.0973
     30 H3          2.0395   42.1180    0.9983 H           1 MOL       0.0973
     31 H4          5.7848   40.9556   -1.7173 H           1 MOL       0.0506
     32 H5          6.2270   38.6366   -2.1571 H           1 MOL       0.0470
     33 H6          5.8467   33.5418   -0.3943 H           1 MOL       0.2580
     34 H7          3.1652   35.5509   -3.9096 H           1 MOL       0.0500
     35 H8          2.0753   35.3343   -6.0972 H           1 MOL       0.0381
     36 H9          2.5659   36.3460   -7.4304 H           1 MOL       0.0381
     37 H10         0.3675   37.0659   -6.5419 H           1 MOL       0.0247
     38 H11         1.5497   38.3550   -6.2425 H           1 MOL       0.0247
     39 H12         1.0516   37.2763   -4.9193 H           1 MOL       0.0247
     40 H13         3.5753   38.2611   -7.5666 H           1 MOL       0.2463
     41 H14         6.6138   38.2949   -5.9298 H           1 MOL       0.0450
     42 H15         7.6953   36.3098   -3.6052 H           1 MOL       0.2473
@<TRIPOS>BOND
     1     1     2  ar
     2     1     9  ar
     3     2     3   1
     4     2     6  ar
     5     3     4   1
     6     4     5   1
     7     5     6   1
     8     6     7  ar
     9     7     8  ar
    10     8     9  ar
    11     9    10   1
    12    10    11   2
    13    10    16   1
    14    11    12   1
    15    11    15   1
    16    12    13  ar
    17    12    14  ar
    18    15    17   1
    19    16    17   2
    20    16    18   1
    21    18    19  ar
    22    18    26  ar
    23    19    20  ar
    24    20    21   1
    25    20    23  ar
    26    21    22   1
    27    23    24   1
    28    23    25  ar
    29    25    26  ar
    30    26    27   1
    31     1    28   1
    32     4    29   1
    33     4    30   1
    34     7    31   1
    35     8    32   1
    36    15    33   1
    37    19    34   1
    38    21    35   1
    39    21    36   1
    40    22    37   1
    41    22    38   1
    42    22    39   1
    43    24    40   1
    44    25    41   1
    45    27    42   1
@<TRIPOS>SUBSTRUCTURE
     1  MOL      1

