@<TRIPOS>MOLECULE
1yc1_ligand_027
    42    45
SMALL
GAST_HUCK
****
This file was generated by PARSER (from files_GN.cpp)

@<TRIPOS>ATOM
      1 C15         2.8840   36.6248   -2.1438 C.ar        1 MOL      -0.0397
      2 C12         3.0119   37.1413   -0.8453 C.ar        1 MOL       0.1203
      3 O17         3.4895   36.4913    0.2262 O.3         1 MOL      -0.2917
      4 C19         3.3467   37.4814    1.2586 C.3         1 MOL       0.1865
      5 O18         2.8686   38.7418    0.7401 O.3         1 MOL      -0.2923
      6 C16         2.6443   38.4455   -0.5529 C.ar        1 MOL       0.1209
      7 C22         2.1309   39.2832   -1.5601 C.ar        1 MOL      -0.0435
      8 C20         1.9983   38.7819   -2.8714 C.ar        1 MOL      -0.0793
      9 C8          2.3843   37.4541   -3.1773 C.ar        1 MOL      -0.0502
     10 C4          2.2736   36.9253   -4.4876 C.2         1 MOL       0.0106
     11 C1          2.8246   37.4338   -5.6727 C.2         1 MOL       0.1253
     12 C7          3.5139   38.6353   -5.9247 C.2         1 MOL       0.0928
     13 O21         4.6481   38.6290   -6.6702 O.co2       1 MOL      -0.5584
     14 O23         3.0938   39.8275   -5.4254 O.co2       1 MOL      -0.5584
     15 N5          2.6070   36.5067   -6.6194 N.pl3       1 MOL      -0.2108
     16 C2          1.7528   35.6729   -4.8314 C.2         1 MOL       0.0398
     17 N3          1.9862   35.4826   -6.1453 N.2         1 MOL      -0.2144
     18 C6          1.1321   34.7099   -3.9896 C.ar        1 MOL       0.0020
     19 C10         1.8619   33.5796   -3.5473 C.ar        1 MOL      -0.0679
     20 C14         1.2902   32.6256   -2.6717 C.ar        1 MOL      -0.0234
     21 C26         2.0809   31.4571   -2.1851 C.3         1 MOL      -0.0285
     22 C27         2.4467   31.5647   -0.6831 C.3         1 MOL      -0.0583
     23 C13        -0.0600   32.7986   -2.2784 C.ar        1 MOL       0.0829
     24 O25        -0.6784   31.8801   -1.4796 O.3         1 MOL      -0.3383
     25 C11        -0.7961   33.9147   -2.7154 C.ar        1 MOL      -0.0091
     26 C9         -0.2022   34.8785   -3.5520 C.ar        1 MOL       0.0835
     27 O24        -0.9321   35.9588   -3.9641 O.3         1 MOL      -0.3373
     28 H1          3.1721   35.6599   -2.3188 H           1 MOL       0.0474
     29 H2          4.3165   37.6320    1.7400 H           1 MOL       0.0973
     30 H3          2.6443   37.1036    2.0074 H           1 MOL       0.0973
     31 H4          1.8616   40.2448   -1.3425 H           1 MOL       0.0506
     32 H5          1.6112   39.3855   -3.6006 H           1 MOL       0.0470
     33 H6          2.8643   36.6108   -7.5501 H           1 MOL       0.2580
     34 H7          2.8284   33.4685   -3.8437 H           1 MOL       0.0500
     35 H8          3.0097   31.3532   -2.7465 H           1 MOL       0.0381
     36 H9          1.5127   30.5364   -2.3457 H           1 MOL       0.0381
     37 H10         3.0551   30.7021   -0.3854 H           1 MOL       0.0247
     38 H11         1.5533   31.5859   -0.0511 H           1 MOL       0.0247
     39 H12         3.0281   32.4691   -0.4984 H           1 MOL       0.0247
     40 H13        -0.9090   31.1389   -2.0885 H           1 MOL       0.2463
     41 H14        -1.7689   34.0157   -2.4108 H           1 MOL       0.0450
     42 H15        -1.5943   36.1443   -3.2641 H           1 MOL       0.2473
@<TRIPOS>BOND
     1     1     2  ar
     2     1     9  ar
     3     2     3   1
     4     2     6  ar
     5     3     4   1
     6     4     5   1
     7     5     6   1
     8     6     7  ar
     9     7     8  ar
    10     8     9  ar
    11     9    10   1
    12    10    11   2
    13    10    16   1
    14    11    12   1
    15    11    15   1
    16    12    13  ar
    17    12    14  ar
    18    15    17   1
    19    16    17   2
    20    16    18   1
    21    18    19  ar
    22    18    26  ar
    23    19    20  ar
    24    20    21   1
    25    20    23  ar
    26    21    22   1
    27    23    24   1
    28    23    25  ar
    29    25    26  ar
    30    26    27   1
    31     1    28   1
    32     4    29   1
    33     4    30   1
    34     7    31   1
    35     8    32   1
    36    15    33   1
    37    19    34   1
    38    21    35   1
    39    21    36   1
    40    22    37   1
    41    22    38   1
    42    22    39   1
    43    24    40   1
    44    25    41   1
    45    27    42   1
@<TRIPOS>SUBSTRUCTURE
     1  MOL      1

