@<TRIPOS>MOLECULE
1yc1_ligand_039
    42    45
SMALL
GAST_HUCK
****
This file was generated by PARSER (from files_GN.cpp)

@<TRIPOS>ATOM
      1 C15         5.0052   38.6304   -3.8943 C.ar        1 MOL      -0.0397
      2 C12         4.5075   39.3004   -5.0249 C.ar        1 MOL       0.1203
      3 O17         4.6143   40.6115   -5.3057 O.3         1 MOL      -0.2917
      4 C19         3.7973   40.7250   -6.4869 C.3         1 MOL       0.1865
      5 O18         3.4206   39.4365   -7.0064 O.3         1 MOL      -0.2923
      6 C16         3.8166   38.6168   -6.0131 C.ar        1 MOL       0.1209
      7 C22         3.5988   37.2343   -5.9066 C.ar        1 MOL      -0.0435
      8 C20         4.1007   36.5465   -4.7817 C.ar        1 MOL      -0.0793
      9 C8          4.8160   37.2315   -3.7632 C.ar        1 MOL      -0.0502
     10 C4          5.2926   36.5347   -2.6153 C.2         1 MOL       0.0106
     11 C1          6.5631   36.6001   -2.0277 C.2         1 MOL       0.1253
     12 C7          7.7111   37.3292   -2.3951 C.2         1 MOL       0.0928
     13 O21         8.8593   37.1647   -1.7011 O.co2       1 MOL      -0.5584
     14 O23         7.7508   38.1232   -3.4885 O.co2       1 MOL      -0.5584
     15 N5          6.5532   35.7435   -0.9919 N.pl3       1 MOL      -0.2108
     16 C2          4.5881   35.5991   -1.8420 C.2         1 MOL       0.0398
     17 N3          5.4120   35.1493   -0.8822 N.2         1 MOL      -0.2144
     18 C6          3.2455   35.1563   -1.9524 C.ar        1 MOL       0.0020
     19 C10         2.9584   33.7727   -1.9091 C.ar        1 MOL      -0.0679
     20 C14         1.6379   33.2825   -2.0479 C.ar        1 MOL      -0.0234
     21 C26         1.3998   31.8097   -2.0216 C.3         1 MOL      -0.0285
     22 C27         1.7544   31.1755   -0.6572 C.3         1 MOL      -0.0583
     23 C13         0.5860   34.2177   -2.2146 C.ar        1 MOL       0.0829
     24 O25        -0.7060   33.8268   -2.3406 O.3         1 MOL      -0.3383
     25 C11         0.8567   35.5972   -2.2315 C.ar        1 MOL      -0.0091
     26 C9          2.1750   36.0688   -2.1015 C.ar        1 MOL       0.0835
     27 O24         2.3717   37.4114   -2.0725 O.3         1 MOL      -0.3373
     28 H1          5.4893   39.1700   -3.1715 H           1 MOL       0.0474
     29 H2          4.3440   41.2769   -7.2549 H           1 MOL       0.0973
     30 H3          2.8924   41.2883   -6.2398 H           1 MOL       0.0973
     31 H4          3.0808   36.7366   -6.6321 H           1 MOL       0.0506
     32 H5          3.9392   35.5384   -4.7120 H           1 MOL       0.0470
     33 H6          7.3101   35.5760   -0.4090 H           1 MOL       0.2580
     34 H7          3.7304   33.1067   -1.8030 H           1 MOL       0.0500
     35 H8          1.9999   31.3364   -2.8023 H           1 MOL       0.0381
     36 H9          0.3556   31.5719   -2.2428 H           1 MOL       0.0381
     37 H10         1.5662   30.1005   -0.6919 H           1 MOL       0.0247
     38 H11         1.1370   31.6086    0.1350 H           1 MOL       0.0247
     39 H12         2.8052   31.3362   -0.4156 H           1 MOL       0.0247
     40 H13        -0.7987   33.5816   -3.2856 H           1 MOL       0.2463
     41 H14         0.0823   36.2599   -2.3266 H           1 MOL       0.0450
     42 H15         2.2802   37.7040   -3.0050 H           1 MOL       0.2473
@<TRIPOS>BOND
     1     1     2  ar
     2     1     9  ar
     3     2     3   1
     4     2     6  ar
     5     3     4   1
     6     4     5   1
     7     5     6   1
     8     6     7  ar
     9     7     8  ar
    10     8     9  ar
    11     9    10   1
    12    10    11   2
    13    10    16   1
    14    11    12   1
    15    11    15   1
    16    12    13  ar
    17    12    14  ar
    18    15    17   1
    19    16    17   2
    20    16    18   1
    21    18    19  ar
    22    18    26  ar
    23    19    20  ar
    24    20    21   1
    25    20    23  ar
    26    21    22   1
    27    23    24   1
    28    23    25  ar
    29    25    26  ar
    30    26    27   1
    31     1    28   1
    32     4    29   1
    33     4    30   1
    34     7    31   1
    35     8    32   1
    36    15    33   1
    37    19    34   1
    38    21    35   1
    39    21    36   1
    40    22    37   1
    41    22    38   1
    42    22    39   1
    43    24    40   1
    44    25    41   1
    45    27    42   1
@<TRIPOS>SUBSTRUCTURE
     1  MOL      1

