@<TRIPOS>MOLECULE
1yc1_ligand_025
    42    45
SMALL
GAST_HUCK
****
This file was generated by PARSER (from files_GN.cpp)

@<TRIPOS>ATOM
      1 C15         4.8460   36.0465   -0.0934 C.ar        1 MOL      -0.0397
      2 C12         5.5871   34.8541   -0.1268 C.ar        1 MOL       0.1203
      3 O17         6.7381   34.5809    0.5077 O.3         1 MOL      -0.2917
      4 C19         6.9575   33.2025    0.1401 C.3         1 MOL       0.1865
      5 O18         6.0082   32.7458   -0.8388 O.3         1 MOL      -0.2923
      6 C16         5.1590   33.7936   -0.9075 C.ar        1 MOL       0.1209
      7 C22         3.9722   33.8780   -1.6612 C.ar        1 MOL      -0.0435
      8 C20         3.1840   35.0389   -1.5797 C.ar        1 MOL      -0.0793
      9 C8          3.6070   36.1468   -0.7935 C.ar        1 MOL      -0.0502
     10 C4          2.8319   37.3415   -0.7071 C.2         1 MOL       0.0106
     11 C1          2.6827   38.1874    0.4046 C.2         1 MOL       0.1253
     12 C7          3.0686   38.0077    1.7434 C.2         1 MOL       0.0928
     13 O21         3.1609   36.7673    2.2765 O.co2       1 MOL      -0.5584
     14 O23         3.1386   39.0589    2.5857 O.co2       1 MOL      -0.5584
     15 N5          1.9952   39.2602   -0.0084 N.pl3       1 MOL      -0.2108
     16 C2          2.1321   37.9967   -1.7290 C.2         1 MOL       0.0398
     17 N3          1.6624   39.1562   -1.2510 N.2         1 MOL      -0.2144
     18 C6          1.9710   37.6425   -3.0790 C.ar        1 MOL       0.0020
     19 C10         2.9148   38.0670   -4.0364 C.ar        1 MOL      -0.0679
     20 C14         2.7455   37.7809   -5.4183 C.ar        1 MOL      -0.0234
     21 C26         3.7362   38.2989   -6.4145 C.3         1 MOL      -0.0285
     22 C27         3.7571   39.8371   -6.5385 C.3         1 MOL      -0.0583
     23 C13         1.6395   36.9808   -5.8014 C.ar        1 MOL       0.0829
     24 O25         1.4306   36.6398   -7.1033 O.3         1 MOL      -0.3383
     25 C11         0.7043   36.5424   -4.8491 C.ar        1 MOL      -0.0091
     26 C9          0.8417   36.9027   -3.4972 C.ar        1 MOL       0.0835
     27 O24        -0.1059   36.4718   -2.6188 O.3         1 MOL      -0.3373
     28 H1          5.2103   36.8405    0.4521 H           1 MOL       0.0474
     29 H2          6.8798   32.5595    1.0193 H           1 MOL       0.0973
     30 H3          7.9586   33.0831   -0.2702 H           1 MOL       0.0973
     31 H4          3.6727   33.0934   -2.2471 H           1 MOL       0.0506
     32 H5          2.2961   35.0490   -2.0728 H           1 MOL       0.0470
     33 H6          1.7558   40.0065    0.5645 H           1 MOL       0.2580
     34 H7          3.7359   38.5991   -3.7338 H           1 MOL       0.0500
     35 H8          3.5347   37.8990   -7.4121 H           1 MOL       0.0381
     36 H9          4.7285   37.9479   -6.1257 H           1 MOL       0.0381
     37 H10         4.4062   40.1319   -7.3704 H           1 MOL       0.0247
     38 H11         4.1415   40.3014   -5.6305 H           1 MOL       0.0247
     39 H12         2.7521   40.2244   -6.7352 H           1 MOL       0.0247
     40 H13         1.1159   35.6964   -7.0727 H           1 MOL       0.2463
     41 H14        -0.0839   35.9638   -5.1392 H           1 MOL       0.0450
     42 H15        -0.5087   37.2969   -2.2356 H           1 MOL       0.2473
@<TRIPOS>BOND
     1     1     2  ar
     2     1     9  ar
     3     2     3   1
     4     2     6  ar
     5     3     4   1
     6     4     5   1
     7     5     6   1
     8     6     7  ar
     9     7     8  ar
    10     8     9  ar
    11     9    10   1
    12    10    11   2
    13    10    16   1
    14    11    12   1
    15    11    15   1
    16    12    13  ar
    17    12    14  ar
    18    15    17   1
    19    16    17   2
    20    16    18   1
    21    18    19  ar
    22    18    26  ar
    23    19    20  ar
    24    20    21   1
    25    20    23  ar
    26    21    22   1
    27    23    24   1
    28    23    25  ar
    29    25    26  ar
    30    26    27   1
    31     1    28   1
    32     4    29   1
    33     4    30   1
    34     7    31   1
    35     8    32   1
    36    15    33   1
    37    19    34   1
    38    21    35   1
    39    21    36   1
    40    22    37   1
    41    22    38   1
    42    22    39   1
    43    24    40   1
    44    25    41   1
    45    27    42   1
@<TRIPOS>SUBSTRUCTURE
     1  MOL      1

