@<TRIPOS>MOLECULE
1yc1_ligand_019
    42    45
SMALL
GAST_HUCK
****
This file was generated by PARSER (from files_GN.cpp)

@<TRIPOS>ATOM
      1 C15         1.1000   39.7654   -5.1087 C.ar        1 MOL      -0.0397
      2 C12         0.0226   40.6618   -5.0150 C.ar        1 MOL       0.1203
      3 O17         0.0366   41.8881   -4.4626 O.3         1 MOL      -0.2917
      4 C19        -1.3289   42.3056   -4.6371 C.3         1 MOL       0.1865
      5 O18        -2.1131   41.3144   -5.3290 O.3         1 MOL      -0.2923
      6 C16        -1.2243   40.3263   -5.5104 C.ar        1 MOL       0.1209
      7 C22        -1.4332   39.0753   -6.1126 C.ar        1 MOL      -0.0435
      8 C20        -0.3537   38.1744   -6.2291 C.ar        1 MOL      -0.0793
      9 C8          0.9373   38.5038   -5.7429 C.ar        1 MOL      -0.0502
     10 C4          2.0404   37.6020   -5.8796 C.2         1 MOL       0.0106
     11 C1          3.3864   37.9513   -6.0342 C.2         1 MOL       0.1253
     12 C7          3.9938   39.2005   -6.2589 C.2         1 MOL       0.0928
     13 O21         3.6234   39.9642   -7.3108 O.co2       1 MOL      -0.5584
     14 O23         4.9574   39.6483   -5.4161 O.co2       1 MOL      -0.5584
     15 N5          4.0960   36.8132   -6.0406 N.pl3       1 MOL      -0.2108
     16 C2          2.0424   36.2057   -5.8591 C.2         1 MOL       0.0398
     17 N3          3.3107   35.7903   -5.9502 N.2         1 MOL      -0.2144
     18 C6          0.9680   35.2951   -5.7274 C.ar        1 MOL       0.0020
     19 C10         0.4007   35.0525   -4.4609 C.ar        1 MOL      -0.0679
     20 C14        -0.6899   34.1647   -4.2820 C.ar        1 MOL      -0.0234
     21 C26        -1.1661   33.9216   -2.8806 C.3         1 MOL      -0.0285
     22 C27        -2.5485   33.2822   -2.5989 C.3         1 MOL      -0.0583
     23 C13        -1.2084   33.5004   -5.4190 C.ar        1 MOL       0.0829
     24 O25        -2.2644   32.6512   -5.3357 O.3         1 MOL      -0.3383
     25 C11        -0.6503   33.7370   -6.6937 C.ar        1 MOL      -0.0091
     26 C9          0.4493   34.6133   -6.8518 C.ar        1 MOL       0.0835
     27 O24         0.9920   34.8150   -8.0942 O.3         1 MOL      -0.3373
     28 H1          1.9975   40.0460   -4.7036 H           1 MOL       0.0474
     29 H2         -1.3474   43.2392   -5.2058 H           1 MOL       0.0973
     30 H3         -1.7721   42.4968   -3.6561 H           1 MOL       0.0973
     31 H4         -2.3507   38.8265   -6.4898 H           1 MOL       0.0506
     32 H5         -0.5239   37.2907   -6.7184 H           1 MOL       0.0470
     33 H6          5.0574   36.7645   -6.1561 H           1 MOL       0.2580
     34 H7          0.8022   35.5310   -3.6483 H           1 MOL       0.0500
     35 H8         -1.1693   34.8828   -2.3524 H           1 MOL       0.0381
     36 H9         -0.4139   33.2941   -2.3942 H           1 MOL       0.0381
     37 H10        -2.7413   33.3099   -1.5198 H           1 MOL       0.0247
     38 H11        -2.5719   32.2423   -2.9355 H           1 MOL       0.0247
     39 H12        -3.3397   33.8370   -3.1013 H           1 MOL       0.0247
     40 H13        -1.9295   31.7649   -5.6607 H           1 MOL       0.2463
     41 H14        -1.0538   33.2693   -7.5115 H           1 MOL       0.0450
     42 H15         0.5501   34.1762   -8.7063 H           1 MOL       0.2473
@<TRIPOS>BOND
     1     1     2  ar
     2     1     9  ar
     3     2     3   1
     4     2     6  ar
     5     3     4   1
     6     4     5   1
     7     5     6   1
     8     6     7  ar
     9     7     8  ar
    10     8     9  ar
    11     9    10   1
    12    10    11   2
    13    10    16   1
    14    11    12   1
    15    11    15   1
    16    12    13  ar
    17    12    14  ar
    18    15    17   1
    19    16    17   2
    20    16    18   1
    21    18    19  ar
    22    18    26  ar
    23    19    20  ar
    24    20    21   1
    25    20    23  ar
    26    21    22   1
    27    23    24   1
    28    23    25  ar
    29    25    26  ar
    30    26    27   1
    31     1    28   1
    32     4    29   1
    33     4    30   1
    34     7    31   1
    35     8    32   1
    36    15    33   1
    37    19    34   1
    38    21    35   1
    39    21    36   1
    40    22    37   1
    41    22    38   1
    42    22    39   1
    43    24    40   1
    44    25    41   1
    45    27    42   1
@<TRIPOS>SUBSTRUCTURE
     1  MOL      1

