@<TRIPOS>MOLECULE
1yc1_ligand_033
    42    45
SMALL
GAST_HUCK
****
This file was generated by PARSER (from files_GN.cpp)

@<TRIPOS>ATOM
      1 C15         3.9297   38.9803   -0.2406 C.ar        1 MOL      -0.0397
      2 C12         3.5020   40.1855    0.3399 C.ar        1 MOL       0.1203
      3 O17         3.7146   41.4409   -0.1074 O.3         1 MOL      -0.2917
      4 C19         3.1941   42.2224    0.9858 C.3         1 MOL       0.1865
      5 O18         2.3777   41.4287    1.8626 O.3         1 MOL      -0.2923
      6 C16         2.7442   40.1866    1.5057 C.ar        1 MOL       0.1209
      7 C22         2.4281   38.9779    2.1564 C.ar        1 MOL      -0.0435
      8 C20         2.8538   37.7654    1.5835 C.ar        1 MOL      -0.0793
      9 C8          3.5747   37.7479    0.3629 C.ar        1 MOL      -0.0502
     10 C4          3.9446   36.5207   -0.2442 C.2         1 MOL       0.0106
     11 C1          5.0254   35.7188    0.0977 C.2         1 MOL       0.1253
     12 C7          5.9616   35.8816    1.1198 C.2         1 MOL       0.0928
     13 O21         7.2757   36.0641    0.8235 O.co2       1 MOL      -0.5584
     14 O23         5.6220   35.5356    2.3871 O.co2       1 MOL      -0.5584
     15 N5          5.0156   34.6668   -0.7449 N.pl3       1 MOL      -0.2108
     16 C2          3.3117   35.8577   -1.2951 C.2         1 MOL       0.0398
     17 N3          4.0070   34.7364   -1.5533 N.2         1 MOL      -0.2144
     18 C6          2.1543   36.2053   -2.0144 C.ar        1 MOL       0.0020
     19 C10         2.0841   37.4501   -2.6747 C.ar        1 MOL      -0.0679
     20 C14         0.9505   37.8451   -3.4161 C.ar        1 MOL      -0.0234
     21 C26         0.9508   39.1567   -4.1156 C.3         1 MOL      -0.0285
     22 C27         1.1066   39.0256   -5.6524 C.3         1 MOL      -0.0583
     23 C13        -0.1521   36.9571   -3.4760 C.ar        1 MOL       0.0829
     24 O25        -1.2900   37.2994   -4.1472 O.3         1 MOL      -0.3383
     25 C11        -0.0887   35.6972   -2.8469 C.ar        1 MOL      -0.0091
     26 C9          1.0622   35.3058   -2.1329 C.ar        1 MOL       0.0835
     27 O24         1.0778   34.0826   -1.5384 O.3         1 MOL      -0.3373
     28 H1          4.4904   39.0086   -1.0984 H           1 MOL       0.0474
     29 H2          2.6086   43.0550    0.5918 H           1 MOL       0.0973
     30 H3          4.0331   42.6412    1.5620 H           1 MOL       0.0973
     31 H4          1.8954   38.9936    3.0241 H           1 MOL       0.0506
     32 H5          2.6235   36.8897    2.0620 H           1 MOL       0.0470
     33 H6          5.6467   33.9295   -0.7275 H           1 MOL       0.2580
     34 H7          2.8979   38.0700   -2.6461 H           1 MOL       0.0500
     35 H8          1.7476   39.7980   -3.7596 H           1 MOL       0.0381
     36 H9          0.0053   39.6761   -3.9006 H           1 MOL       0.0381
     37 H10         1.1217   40.0143   -6.1128 H           1 MOL       0.0247
     38 H11         0.2814   38.4562   -6.0779 H           1 MOL       0.0247
     39 H12         2.0500   38.5205   -5.9025 H           1 MOL       0.0247
     40 H13        -2.0238   37.1526   -3.5113 H           1 MOL       0.2463
     41 H14        -0.8958   35.0614   -2.9006 H           1 MOL       0.0450
     42 H15         0.2736   33.6144   -1.8350 H           1 MOL       0.2473
@<TRIPOS>BOND
     1     1     2  ar
     2     1     9  ar
     3     2     3   1
     4     2     6  ar
     5     3     4   1
     6     4     5   1
     7     5     6   1
     8     6     7  ar
     9     7     8  ar
    10     8     9  ar
    11     9    10   1
    12    10    11   2
    13    10    16   1
    14    11    12   1
    15    11    15   1
    16    12    13  ar
    17    12    14  ar
    18    15    17   1
    19    16    17   2
    20    16    18   1
    21    18    19  ar
    22    18    26  ar
    23    19    20  ar
    24    20    21   1
    25    20    23  ar
    26    21    22   1
    27    23    24   1
    28    23    25  ar
    29    25    26  ar
    30    26    27   1
    31     1    28   1
    32     4    29   1
    33     4    30   1
    34     7    31   1
    35     8    32   1
    36    15    33   1
    37    19    34   1
    38    21    35   1
    39    21    36   1
    40    22    37   1
    41    22    38   1
    42    22    39   1
    43    24    40   1
    44    25    41   1
    45    27    42   1
@<TRIPOS>SUBSTRUCTURE
     1  MOL      1

