@<TRIPOS>MOLECULE
1yc1_ligand_030
    42    45
SMALL
GAST_HUCK
****
This file was generated by PARSER (from files_GN.cpp)

@<TRIPOS>ATOM
      1 C15         1.8824   36.0943   -2.8522 C.ar        1 MOL      -0.0397
      2 C12         1.3111   34.8258   -3.0643 C.ar        1 MOL       0.1203
      3 O17         0.6561   34.0605   -2.1741 O.3         1 MOL      -0.2917
      4 C19         0.2876   32.9142   -2.9692 C.3         1 MOL       0.1865
      5 O18         0.7968   33.0050   -4.3134 O.3         1 MOL      -0.2923
      6 C16         1.3964   34.2113   -4.3028 C.ar        1 MOL       0.1209
      7 C22         2.0761   34.8210   -5.3687 C.ar        1 MOL      -0.0435
      8 C20         2.6717   36.0803   -5.1621 C.ar        1 MOL      -0.0793
      9 C8          2.5757   36.7482   -3.9087 C.ar        1 MOL      -0.0502
     10 C4          3.1923   38.0239   -3.7368 C.2         1 MOL       0.0106
     11 C1          3.3134   39.0564   -4.6746 C.2         1 MOL       0.1253
     12 C7          2.7178   39.1971   -5.9373 C.2         1 MOL       0.0928
     13 O21         3.3935   39.7563   -6.9730 O.co2       1 MOL      -0.5584
     14 O23         1.4093   38.9029   -6.1245 O.co2       1 MOL      -0.5584
     15 N5          4.1200   39.9837   -4.1404 N.pl3       1 MOL      -0.2108
     16 C2          3.9445   38.4600   -2.6409 C.2         1 MOL       0.0398
     17 N3          4.4962   39.6465   -2.9481 N.2         1 MOL      -0.2144
     18 C6          4.2521   37.7865   -1.4394 C.ar        1 MOL       0.0020
     19 C10         5.3910   36.9495   -1.3875 C.ar        1 MOL      -0.0679
     20 C14         5.7443   36.2551   -0.2041 C.ar        1 MOL      -0.0234
     21 C26         6.9480   35.3779   -0.1814 C.3         1 MOL      -0.0285
     22 C27         6.6268   33.8841    0.0701 C.3         1 MOL      -0.0583
     23 C13         4.9364   36.4364    0.9462 C.ar        1 MOL       0.0829
     24 O25         5.1916   35.8238    2.1318 O.3         1 MOL      -0.3383
     25 C11         3.8064   37.2715    0.9011 C.ar        1 MOL      -0.0091
     26 C9          3.4558   37.9449   -0.2816 C.ar        1 MOL       0.0835
     27 O24         2.3393   38.7162   -0.2869 O.3         1 MOL      -0.3373
     28 H1          1.7817   36.5305   -1.9339 H           1 MOL       0.0474
     29 H2         -0.7984   32.8432   -3.0047 H           1 MOL       0.0973
     30 H3          0.6769   32.0078   -2.5013 H           1 MOL       0.0973
     31 H4          2.1439   34.3550   -6.2709 H           1 MOL       0.0506
     32 H5          3.1960   36.5003   -5.9350 H           1 MOL       0.0470
     33 H6          4.3900   40.8039   -4.5866 H           1 MOL       0.2580
     34 H7          5.9666   36.8389   -2.2286 H           1 MOL       0.0500
     35 H8          7.6330   35.7291    0.6018 H           1 MOL       0.0381
     36 H9          7.4960   35.4453   -1.1195 H           1 MOL       0.0381
     37 H10         7.5400   33.2953   -0.0025 H           1 MOL       0.0247
     38 H11         5.9248   33.5157   -0.6839 H           1 MOL       0.0247
     39 H12         6.1920   33.7287    1.0601 H           1 MOL       0.0247
     40 H13         6.1615   35.7119    2.1918 H           1 MOL       0.2463
     41 H14         3.2337   37.3972    1.7384 H           1 MOL       0.0450
     42 H15         1.6930   38.2330    0.2739 H           1 MOL       0.2473
@<TRIPOS>BOND
     1     1     2  ar
     2     1     9  ar
     3     2     3   1
     4     2     6  ar
     5     3     4   1
     6     4     5   1
     7     5     6   1
     8     6     7  ar
     9     7     8  ar
    10     8     9  ar
    11     9    10   1
    12    10    11   2
    13    10    16   1
    14    11    12   1
    15    11    15   1
    16    12    13  ar
    17    12    14  ar
    18    15    17   1
    19    16    17   2
    20    16    18   1
    21    18    19  ar
    22    18    26  ar
    23    19    20  ar
    24    20    21   1
    25    20    23  ar
    26    21    22   1
    27    23    24   1
    28    23    25  ar
    29    25    26  ar
    30    26    27   1
    31     1    28   1
    32     4    29   1
    33     4    30   1
    34     7    31   1
    35     8    32   1
    36    15    33   1
    37    19    34   1
    38    21    35   1
    39    21    36   1
    40    22    37   1
    41    22    38   1
    42    22    39   1
    43    24    40   1
    44    25    41   1
    45    27    42   1
@<TRIPOS>SUBSTRUCTURE
     1  MOL      1

