@<TRIPOS>MOLECULE
1yc1_ligand_009
    42    45
SMALL
GAST_HUCK
****
This file was generated by PARSER (from files_GN.cpp)

@<TRIPOS>ATOM
      1 C15         1.7868   38.1965   -5.1961 C.ar        1 MOL      -0.0397
      2 C12         0.5634   38.7312   -5.6301 C.ar        1 MOL       0.1203
      3 O17         0.2022   40.0338   -5.6505 O.3         1 MOL      -0.2917
      4 C19        -1.1941   39.9427   -5.9851 C.3         1 MOL       0.1865
      5 O18        -1.5883   38.5996   -6.3385 O.3         1 MOL      -0.2923
      6 C16        -0.4712   37.9045   -6.0411 C.ar        1 MOL       0.1209
      7 C22        -0.2964   36.5079   -6.0742 C.ar        1 MOL      -0.0435
      8 C20         0.9368   35.9548   -5.6525 C.ar        1 MOL      -0.0793
      9 C8          1.9809   36.7893   -5.1732 C.ar        1 MOL      -0.0502
     10 C4          3.1664   36.2473   -4.6157 C.2         1 MOL       0.0106
     11 C1          4.4727   36.7566   -4.7354 C.2         1 MOL       0.1253
     12 C7          4.9780   37.7898   -5.5435 C.2         1 MOL       0.0928
     13 O21         5.6137   38.8526   -4.9755 O.co2       1 MOL      -0.5584
     14 O23         4.8350   37.7661   -6.8948 O.co2       1 MOL      -0.5584
     15 N5          5.2656   36.0124   -3.9499 N.pl3       1 MOL      -0.2108
     16 C2          3.2905   35.1722   -3.7320 C.2         1 MOL       0.0398
     17 N3          4.5881   35.0815   -3.3785 N.2         1 MOL      -0.2144
     18 C6          2.3371   34.2653   -3.1890 C.ar        1 MOL       0.0020
     19 C10         2.6799   32.9021   -3.0226 C.ar        1 MOL      -0.0679
     20 C14         1.7787   31.9583   -2.4761 C.ar        1 MOL      -0.0234
     21 C26         2.1957   30.5354   -2.2487 C.3         1 MOL      -0.0285
     22 C27         2.3825   30.2179   -0.7479 C.3         1 MOL      -0.0583
     23 C13         0.4725   32.3827   -2.1371 C.ar        1 MOL       0.0829
     24 O25        -0.4733   31.5261   -1.6818 O.3         1 MOL      -0.3383
     25 C11         0.1193   33.7373   -2.2649 C.ar        1 MOL      -0.0091
     26 C9          1.0525   34.6836   -2.7501 C.ar        1 MOL       0.0835
     27 O24         0.6962   36.0054   -2.7556 O.3         1 MOL      -0.3373
     28 H1          2.4976   38.8369   -4.8378 H           1 MOL       0.0474
     29 H2         -1.4099   40.6160   -6.8217 H           1 MOL       0.0973
     30 H3         -1.7905   40.2804   -5.1281 H           1 MOL       0.0973
     31 H4         -1.0697   35.9059   -6.3667 H           1 MOL       0.0506
     32 H5          1.0603   34.9491   -5.6997 H           1 MOL       0.0470
     33 H6          6.2236   36.1499   -3.8516 H           1 MOL       0.2580
     34 H7          3.6068   32.5959   -3.3058 H           1 MOL       0.0500
     35 H8          3.1361   30.3229   -2.7568 H           1 MOL       0.0381
     36 H9          1.4453   29.8635   -2.6747 H           1 MOL       0.0381
     37 H10         2.7232   29.1788   -0.6321 H           1 MOL       0.0247
     38 H11         1.4467   30.3275   -0.1985 H           1 MOL       0.0247
     39 H12         3.1295   30.8753   -0.3133 H           1 MOL       0.0247
     40 H13        -0.9167   31.1950   -2.4936 H           1 MOL       0.2463
     41 H14        -0.8269   34.0415   -2.0017 H           1 MOL       0.0450
     42 H15         0.7681   36.2749   -1.7950 H           1 MOL       0.2473
@<TRIPOS>BOND
     1     1     2  ar
     2     1     9  ar
     3     2     3   1
     4     2     6  ar
     5     3     4   1
     6     4     5   1
     7     5     6   1
     8     6     7  ar
     9     7     8  ar
    10     8     9  ar
    11     9    10   1
    12    10    11   2
    13    10    16   1
    14    11    12   1
    15    11    15   1
    16    12    13  ar
    17    12    14  ar
    18    15    17   1
    19    16    17   2
    20    16    18   1
    21    18    19  ar
    22    18    26  ar
    23    19    20  ar
    24    20    21   1
    25    20    23  ar
    26    21    22   1
    27    23    24   1
    28    23    25  ar
    29    25    26  ar
    30    26    27   1
    31     1    28   1
    32     4    29   1
    33     4    30   1
    34     7    31   1
    35     8    32   1
    36    15    33   1
    37    19    34   1
    38    21    35   1
    39    21    36   1
    40    22    37   1
    41    22    38   1
    42    22    39   1
    43    24    40   1
    44    25    41   1
    45    27    42   1
@<TRIPOS>SUBSTRUCTURE
     1  MOL      1

