@<TRIPOS>MOLECULE
1yc1_ligand_001
    42    45
SMALL
GAST_HUCK
****
This file was generated by PARSER (from files_GN.cpp)

@<TRIPOS>ATOM
      1 C15         2.6691   37.5040   -6.0767 C.ar        1 MOL      -0.0397
      2 C12         1.9624   36.3450   -6.4302 C.ar        1 MOL       0.1203
      3 O17         1.0652   36.2247   -7.4228 O.3         1 MOL      -0.2917
      4 C19         0.6838   34.8380   -7.2977 C.3         1 MOL       0.1865
      5 O18         1.3476   34.1756   -6.2031 O.3         1 MOL      -0.2923
      6 C16         2.1476   35.1648   -5.7339 C.ar        1 MOL       0.1209
      7 C22         3.0615   35.1043   -4.6712 C.ar        1 MOL      -0.0435
      8 C20         3.8134   36.2534   -4.3577 C.ar        1 MOL      -0.0793
      9 C8          3.6524   37.4966   -5.0392 C.ar        1 MOL      -0.0502
     10 C4          4.3884   38.6982   -4.6939 C.2         1 MOL       0.0106
     11 C1          4.3597   39.9640   -5.3161 C.2         1 MOL       0.1253
     12 C7          3.7641   40.4252   -6.4932 C.2         1 MOL       0.0928
     13 O21         3.2098   41.6731   -6.5372 O.co2       1 MOL      -0.5584
     14 O23         3.9357   39.7452   -7.6523 O.co2       1 MOL      -0.5584
     15 N5          5.1334   40.8005   -4.6136 N.pl3       1 MOL      -0.2108
     16 C2          5.2887   38.9133   -3.6297 C.2         1 MOL       0.0398
     17 N3          5.7011   40.1890   -3.6349 N.2         1 MOL      -0.2144
     18 C6          5.8337   38.0340   -2.6810 C.ar        1 MOL       0.0020
     19 C10         5.1556   37.7553   -1.4746 C.ar        1 MOL      -0.0679
     20 C14         5.6486   36.8018   -0.5523 C.ar        1 MOL      -0.0234
     21 C26         4.9246   36.4432    0.7079 C.3         1 MOL      -0.0285
     22 C27         3.7194   37.3137    1.1526 C.3         1 MOL      -0.0583
     23 C13         6.8559   36.1319   -0.8651 C.ar        1 MOL       0.0829
     24 O25         7.3631   35.1802   -0.0338 O.3         1 MOL      -0.3383
     25 C11         7.5706   36.4406   -2.0416 C.ar        1 MOL      -0.0091
     26 C9          7.0631   37.3851   -2.9563 C.ar        1 MOL       0.0835
     27 O24         7.7568   37.6271   -4.0946 O.3         1 MOL      -0.3373
     28 H1          2.4277   38.3491   -6.5850 H           1 MOL       0.0474
     29 H2          0.9245   34.3140   -8.2304 H           1 MOL       0.0973
     30 H3         -0.3946   34.7820   -7.1438 H           1 MOL       0.0973
     31 H4          3.1785   34.2286   -4.1572 H           1 MOL       0.0506
     32 H5          4.4885   36.1436   -3.6094 H           1 MOL       0.0470
     33 H6          5.2874   41.7288   -4.8407 H           1 MOL       0.2580
     34 H7          4.2801   38.2437   -1.2858 H           1 MOL       0.0500
     35 H8          5.6397   36.4680    1.5415 H           1 MOL       0.0381
     36 H9          4.5729   35.4113    0.6141 H           1 MOL       0.0381
     37 H10         3.3348   36.9591    2.1049 H           1 MOL       0.0247
     38 H11         2.9144   37.2572    0.4145 H           1 MOL       0.0247
     39 H12         4.0277   38.3553    1.2727 H           1 MOL       0.0247
     40 H13         7.7173   34.4776   -0.6318 H           1 MOL       0.2463
     41 H14         8.4613   35.9691   -2.2460 H           1 MOL       0.0450
     42 H15         7.5060   36.9009   -4.7085 H           1 MOL       0.2473
@<TRIPOS>BOND
     1     1     2  ar
     2     1     9  ar
     3     2     3   1
     4     2     6  ar
     5     3     4   1
     6     4     5   1
     7     5     6   1
     8     6     7  ar
     9     7     8  ar
    10     8     9  ar
    11     9    10   1
    12    10    11   2
    13    10    16   1
    14    11    12   1
    15    11    15   1
    16    12    13  ar
    17    12    14  ar
    18    15    17   1
    19    16    17   2
    20    16    18   1
    21    18    19  ar
    22    18    26  ar
    23    19    20  ar
    24    20    21   1
    25    20    23  ar
    26    21    22   1
    27    23    24   1
    28    23    25  ar
    29    25    26  ar
    30    26    27   1
    31     1    28   1
    32     4    29   1
    33     4    30   1
    34     7    31   1
    35     8    32   1
    36    15    33   1
    37    19    34   1
    38    21    35   1
    39    21    36   1
    40    22    37   1
    41    22    38   1
    42    22    39   1
    43    24    40   1
    44    25    41   1
    45    27    42   1
@<TRIPOS>SUBSTRUCTURE
     1  MOL      1

