@<TRIPOS>MOLECULE
1yc1_ligand_036
    42    45
SMALL
GAST_HUCK
****
This file was generated by PARSER (from files_GN.cpp)

@<TRIPOS>ATOM
      1 C15         1.9966   34.6395   -1.8462 C.ar        1 MOL      -0.0397
      2 C12         1.2681   33.4568   -2.0487 C.ar        1 MOL       0.1203
      3 O17        -0.0570   33.2789   -1.8993 O.3         1 MOL      -0.2917
      4 C19        -0.2209   31.9052   -2.3113 C.3         1 MOL       0.1865
      5 O18         1.0342   31.2758   -2.6357 O.3         1 MOL      -0.2923
      6 C16         1.8927   32.3020   -2.4952 C.ar        1 MOL       0.1209
      7 C22         3.2794   32.2797   -2.7316 C.ar        1 MOL      -0.0435
      8 C20         4.0241   33.4578   -2.5225 C.ar        1 MOL      -0.0793
      9 C8          3.3890   34.6464   -2.0903 C.ar        1 MOL      -0.0502
     10 C4          4.1368   35.8394   -1.9790 C.2         1 MOL       0.0106
     11 C1          4.8723   36.1845   -0.8381 C.2         1 MOL       0.1253
     12 C7          4.9407   35.5792    0.4206 C.2         1 MOL       0.0928
     13 O21         3.8768   35.6015    1.2529 O.co2       1 MOL      -0.5584
     14 O23         6.0755   34.9292    0.8046 O.co2       1 MOL      -0.5584
     15 N5          5.5526   37.2986   -1.1356 N.pl3       1 MOL      -0.2108
     16 C2          4.4361   36.8056   -2.9600 C.2         1 MOL       0.0398
     17 N3          5.2883   37.6666   -2.3485 N.2         1 MOL      -0.2144
     18 C6          4.0188   36.9624   -4.3235 C.ar        1 MOL       0.0020
     19 C10         3.0814   36.0780   -4.9098 C.ar        1 MOL      -0.0679
     20 C14         2.6935   36.1455   -6.2699 C.ar        1 MOL      -0.0234
     21 C26         1.7664   35.1545   -6.9118 C.3         1 MOL      -0.0285
     22 C27         0.7880   34.3526   -6.0190 C.3         1 MOL      -0.0583
     23 C13         3.2324   37.1834   -7.0664 C.ar        1 MOL       0.0829
     24 O25         2.9143   37.3122   -8.3840 O.3         1 MOL      -0.3383
     25 C11         4.1146   38.1158   -6.4884 C.ar        1 MOL      -0.0091
     26 C9          4.5237   38.0066   -5.1494 C.ar        1 MOL       0.0835
     27 O24         5.4081   38.9555   -4.7241 O.3         1 MOL      -0.3373
     28 H1          1.5110   35.4910   -1.5609 H           1 MOL       0.0474
     29 H2         -0.8786   31.8696   -3.1886 H           1 MOL       0.0973
     30 H3         -0.7023   31.3419   -1.5034 H           1 MOL       0.0973
     31 H4          3.7295   31.4260   -3.0740 H           1 MOL       0.0506
     32 H5          5.0357   33.4424   -2.7094 H           1 MOL       0.0470
     33 H6          6.1239   37.7919   -0.5194 H           1 MOL       0.2580
     34 H7          2.6596   35.3398   -4.3533 H           1 MOL       0.0500
     35 H8          2.3879   34.4175   -7.4472 H           1 MOL       0.0381
     36 H9          1.1597   35.6797   -7.6751 H           1 MOL       0.0381
     37 H10         0.1883   33.6766   -6.6272 H           1 MOL       0.0247
     38 H11         0.1123   35.0416   -5.4961 H           1 MOL       0.0247
     39 H12         1.3393   33.7604   -5.2849 H           1 MOL       0.0247
     40 H13         3.7535   37.0985   -8.8594 H           1 MOL       0.2463
     41 H14         4.4679   38.8927   -7.0619 H           1 MOL       0.0450
     42 H15         6.1440   38.4541   -4.3202 H           1 MOL       0.2473
@<TRIPOS>BOND
     1     1     2  ar
     2     1     9  ar
     3     2     3   1
     4     2     6  ar
     5     3     4   1
     6     4     5   1
     7     5     6   1
     8     6     7  ar
     9     7     8  ar
    10     8     9  ar
    11     9    10   1
    12    10    11   2
    13    10    16   1
    14    11    12   1
    15    11    15   1
    16    12    13  ar
    17    12    14  ar
    18    15    17   1
    19    16    17   2
    20    16    18   1
    21    18    19  ar
    22    18    26  ar
    23    19    20  ar
    24    20    21   1
    25    20    23  ar
    26    21    22   1
    27    23    24   1
    28    23    25  ar
    29    25    26  ar
    30    26    27   1
    31     1    28   1
    32     4    29   1
    33     4    30   1
    34     7    31   1
    35     8    32   1
    36    15    33   1
    37    19    34   1
    38    21    35   1
    39    21    36   1
    40    22    37   1
    41    22    38   1
    42    22    39   1
    43    24    40   1
    44    25    41   1
    45    27    42   1
@<TRIPOS>SUBSTRUCTURE
     1  MOL      1

