@<TRIPOS>MOLECULE
1yc1_ligand_037
    42    45
SMALL
GAST_HUCK
****
This file was generated by PARSER (from files_GN.cpp)

@<TRIPOS>ATOM
      1 C15         3.9131   38.5572   -5.1922 C.ar        1 MOL      -0.0397
      2 C12         4.0737   39.9299   -4.9293 C.ar        1 MOL       0.1203
      3 O17         4.4078   40.8974   -5.7979 O.3         1 MOL      -0.2917
      4 C19         4.5842   42.0327   -4.9218 C.3         1 MOL       0.1865
      5 O18         4.0894   41.7621   -3.5992 O.3         1 MOL      -0.2923
      6 C16         3.8850   40.4387   -3.6542 C.ar        1 MOL       0.1209
      7 C22         3.5381   39.5982   -2.5854 C.ar        1 MOL      -0.0435
      8 C20         3.3751   38.2211   -2.8290 C.ar        1 MOL      -0.0793
      9 C8          3.5832   37.6871   -4.1262 C.ar        1 MOL      -0.0502
     10 C4          3.4601   36.2885   -4.3260 C.2         1 MOL       0.0106
     11 C1          2.4139   35.6211   -4.9735 C.2         1 MOL       0.1253
     12 C7          1.3333   36.1606   -5.6910 C.2         1 MOL       0.0928
     13 O21         0.0866   35.6346   -5.5479 O.co2       1 MOL      -0.5584
     14 O23         1.5277   37.1105   -6.6458 O.co2       1 MOL      -0.5584
     15 N5          2.5359   34.3192   -4.6749 N.pl3       1 MOL      -0.2108
     16 C2          4.1640   35.2992   -3.6325 C.2         1 MOL       0.0398
     17 N3          3.5482   34.1247   -3.8881 N.2         1 MOL      -0.2144
     18 C6          5.2613   35.4122   -2.7495 C.ar        1 MOL       0.0020
     19 C10         5.2307   34.7727   -1.4904 C.ar        1 MOL      -0.0679
     20 C14         6.3253   34.8399   -0.5970 C.ar        1 MOL      -0.0234
     21 C26         6.2353   34.1500    0.7145 C.3         1 MOL      -0.0285
     22 C27         6.1233   35.1247    1.9126 C.3         1 MOL      -0.0583
     23 C13         7.4800   35.5572   -0.9926 C.ar        1 MOL       0.0829
     24 O25         8.6032   35.5773   -0.2352 O.3         1 MOL      -0.3383
     25 C11         7.5235   36.2133   -2.2370 C.ar        1 MOL      -0.0091
     26 C9          6.4203   36.1385   -3.1091 C.ar        1 MOL       0.0835
     27 O24         6.5392   36.7190   -4.3278 O.3         1 MOL      -0.3373
     28 H1          4.0754   38.1956   -6.1368 H           1 MOL       0.0474
     29 H2          4.0551   42.8956   -5.3365 H           1 MOL       0.0973
     30 H3          5.6498   42.2839   -4.8610 H           1 MOL       0.0973
     31 H4          3.4067   39.9788   -1.6476 H           1 MOL       0.0506
     32 H5          3.1096   37.6084   -2.0486 H           1 MOL       0.0470
     33 H6          1.9533   33.6272   -4.9925 H           1 MOL       0.2580
     34 H7          4.3906   34.2544   -1.2278 H           1 MOL       0.0500
     35 H8          7.1138   33.5189    0.8468 H           1 MOL       0.0381
     36 H9          5.3680   33.4869    0.7678 H           1 MOL       0.0381
     37 H10         6.0183   34.5637    2.8435 H           1 MOL       0.0247
     38 H11         5.2468   35.7707    1.7993 H           1 MOL       0.0247
     39 H12         7.0083   35.7542    1.9882 H           1 MOL       0.0247
     40 H13         8.8011   34.6308   -0.0249 H           1 MOL       0.2463
     41 H14         8.3563   36.7230   -2.5096 H           1 MOL       0.0450
     42 H15         7.3782   36.3506   -4.7025 H           1 MOL       0.2473
@<TRIPOS>BOND
     1     1     2  ar
     2     1     9  ar
     3     2     3   1
     4     2     6  ar
     5     3     4   1
     6     4     5   1
     7     5     6   1
     8     6     7  ar
     9     7     8  ar
    10     8     9  ar
    11     9    10   1
    12    10    11   2
    13    10    16   1
    14    11    12   1
    15    11    15   1
    16    12    13  ar
    17    12    14  ar
    18    15    17   1
    19    16    17   2
    20    16    18   1
    21    18    19  ar
    22    18    26  ar
    23    19    20  ar
    24    20    21   1
    25    20    23  ar
    26    21    22   1
    27    23    24   1
    28    23    25  ar
    29    25    26  ar
    30    26    27   1
    31     1    28   1
    32     4    29   1
    33     4    30   1
    34     7    31   1
    35     8    32   1
    36    15    33   1
    37    19    34   1
    38    21    35   1
    39    21    36   1
    40    22    37   1
    41    22    38   1
    42    22    39   1
    43    24    40   1
    44    25    41   1
    45    27    42   1
@<TRIPOS>SUBSTRUCTURE
     1  MOL      1

