@<TRIPOS>MOLECULE
1yc1_ligand_042
    42    45
SMALL
GAST_HUCK
****
This file was generated by PARSER (from files_GN.cpp)

@<TRIPOS>ATOM
      1 C15         6.6429   36.4008   -2.9945 C.ar        1 MOL      -0.0397
      2 C12         6.9841   36.9553   -4.2388 C.ar        1 MOL       0.1203
      3 O17         8.0058   36.5961   -5.0370 O.3         1 MOL      -0.2917
      4 C19         7.9366   37.5997   -6.0682 C.3         1 MOL       0.1865
      5 O18         6.7078   38.3490   -5.9957 O.3         1 MOL      -0.2923
      6 C16         6.2431   37.9906   -4.7846 C.ar        1 MOL       0.1209
      7 C22         5.1510   38.5334   -4.0880 C.ar        1 MOL      -0.0435
      8 C20         4.8163   38.0056   -2.8245 C.ar        1 MOL      -0.0793
      9 C8          5.5498   36.9292   -2.2609 C.ar        1 MOL      -0.0502
     10 C4          5.2333   36.4170   -0.9717 C.2         1 MOL       0.0106
     11 C1          6.1074   36.2137    0.1000 C.2         1 MOL       0.1253
     12 C7          7.4686   36.5444    0.2193 C.2         1 MOL       0.0928
     13 O21         8.1914   36.0698    1.2571 O.co2       1 MOL      -0.5584
     14 O23         8.0378   37.4848   -0.5666 O.co2       1 MOL      -0.5584
     15 N5          5.3955   35.6465    1.0878 N.pl3       1 MOL      -0.2108
     16 C2          4.0045   35.9301   -0.5133 C.2         1 MOL       0.0398
     17 N3          4.1625   35.4780    0.7409 N.2         1 MOL      -0.2144
     18 C6          2.7946   35.7964   -1.2141 C.ar        1 MOL       0.0020
     19 C10         1.9342   36.9045   -1.3446 C.ar        1 MOL      -0.0679
     20 C14         0.7385   36.8250   -2.0962 C.ar        1 MOL      -0.0234
     21 C26        -0.0863   38.0551   -2.2656 C.3         1 MOL      -0.0285
     22 C27         0.6469   39.1757   -3.0433 C.3         1 MOL      -0.0583
     23 C13         0.3789   35.5751   -2.6645 C.ar        1 MOL       0.0829
     24 O25        -0.7484   35.4036   -3.4014 O.3         1 MOL      -0.3383
     25 C11         1.2103   34.4518   -2.4893 C.ar        1 MOL      -0.0091
     26 C9          2.4136   34.5551   -1.7693 C.ar        1 MOL       0.0835
     27 O24         3.1816   33.4410   -1.6354 O.3         1 MOL      -0.3373
     28 H1          7.2013   35.6283   -2.6274 H           1 MOL       0.0474
     29 H2          8.0176   37.1124   -7.0424 H           1 MOL       0.0973
     30 H3          8.7779   38.2908   -5.9708 H           1 MOL       0.0973
     31 H4          4.6192   39.3111   -4.4858 H           1 MOL       0.0506
     32 H5          4.0526   38.4397   -2.3059 H           1 MOL       0.0470
     33 H6          5.7555   35.4025    1.9551 H           1 MOL       0.2580
     34 H7          2.1842   37.7874   -0.8920 H           1 MOL       0.0500
     35 H8         -0.3616   38.4284   -1.2748 H           1 MOL       0.0381
     36 H9         -1.0174   37.8420   -2.7943 H           1 MOL       0.0381
     37 H10        -0.0283   40.0193   -3.1932 H           1 MOL       0.0247
     38 H11         0.9780   38.8142   -4.0190 H           1 MOL       0.0247
     39 H12         1.5150   39.5301   -2.4851 H           1 MOL       0.0247
     40 H13        -1.4630   35.8661   -2.9158 H           1 MOL       0.2463
     41 H14         0.9402   33.5509   -2.8947 H           1 MOL       0.0450
     42 H15         3.1833   33.2467   -0.6734 H           1 MOL       0.2473
@<TRIPOS>BOND
     1     1     2  ar
     2     1     9  ar
     3     2     3   1
     4     2     6  ar
     5     3     4   1
     6     4     5   1
     7     5     6   1
     8     6     7  ar
     9     7     8  ar
    10     8     9  ar
    11     9    10   1
    12    10    11   2
    13    10    16   1
    14    11    12   1
    15    11    15   1
    16    12    13  ar
    17    12    14  ar
    18    15    17   1
    19    16    17   2
    20    16    18   1
    21    18    19  ar
    22    18    26  ar
    23    19    20  ar
    24    20    21   1
    25    20    23  ar
    26    21    22   1
    27    23    24   1
    28    23    25  ar
    29    25    26  ar
    30    26    27   1
    31     1    28   1
    32     4    29   1
    33     4    30   1
    34     7    31   1
    35     8    32   1
    36    15    33   1
    37    19    34   1
    38    21    35   1
    39    21    36   1
    40    22    37   1
    41    22    38   1
    42    22    39   1
    43    24    40   1
    44    25    41   1
    45    27    42   1
@<TRIPOS>SUBSTRUCTURE
     1  MOL      1

