@<TRIPOS>MOLECULE
1yc1_ligand_038
    42    45
SMALL
GAST_HUCK
****
This file was generated by PARSER (from files_GN.cpp)

@<TRIPOS>ATOM
      1 C15         3.4676   37.7007   -1.0713 C.ar        1 MOL      -0.0397
      2 C12         3.1293   37.7702    0.2922 C.ar        1 MOL       0.1203
      3 O17         2.2830   38.6324    0.8819 O.3         1 MOL      -0.2917
      4 C19         2.4822   38.3302    2.2737 C.3         1 MOL       0.1865
      5 O18         3.2497   37.1197    2.4456 O.3         1 MOL      -0.2923
      6 C16         3.6979   36.8952    1.2047 C.ar        1 MOL       0.1209
      7 C22         4.6041   35.9049    0.7937 C.ar        1 MOL      -0.0435
      8 C20         4.9525   35.8242   -0.5707 C.ar        1 MOL      -0.0793
      9 C8          4.3996   36.7294   -1.5105 C.ar        1 MOL      -0.0502
     10 C4          4.8040   36.7138   -2.8656 C.2         1 MOL       0.0106
     11 C1          6.0397   37.0927   -3.3893 C.2         1 MOL       0.1253
     12 C7          7.2153   37.4788   -2.7265 C.2         1 MOL       0.0928
     13 O21         7.6180   36.9239   -1.5621 O.co2       1 MOL      -0.5584
     14 O23         8.0349   38.3835   -3.2984 O.co2       1 MOL      -0.5584
     15 N5          5.9004   37.0963   -4.7253 N.pl3       1 MOL      -0.2108
     16 C2          3.9883   36.4982   -3.9757 C.2         1 MOL       0.0398
     17 N3          4.7070   36.7476   -5.0814 N.2         1 MOL      -0.2144
     18 C6          2.6445   36.0747   -3.9972 C.ar        1 MOL       0.0020
     19 C10         1.6220   37.0189   -4.2407 C.ar        1 MOL      -0.0679
     20 C14         0.2576   36.6422   -4.2423 C.ar        1 MOL      -0.0234
     21 C26        -0.7785   37.6860   -4.4911 C.3         1 MOL      -0.0285
     22 C27        -1.0136   37.9350   -5.9981 C.3         1 MOL      -0.0583
     23 C13        -0.0712   35.2822   -4.0062 C.ar        1 MOL       0.0829
     24 O25        -1.3529   34.8369   -4.0214 O.3         1 MOL      -0.3383
     25 C11         0.9446   34.3363   -3.7796 C.ar        1 MOL      -0.0091
     26 C9          2.2944   34.7259   -3.7606 C.ar        1 MOL       0.0835
     27 O24         3.2470   33.7866   -3.5356 O.3         1 MOL      -0.3373
     28 H1          3.0568   38.3757   -1.7216 H           1 MOL       0.0474
     29 H2          1.5121   38.2172    2.7639 H           1 MOL       0.0973
     30 H3          3.0069   39.1671    2.7468 H           1 MOL       0.0973
     31 H4          5.0123   35.2621    1.4703 H           1 MOL       0.0506
     32 H5          5.6199   35.1089   -0.8724 H           1 MOL       0.0470
     33 H6          6.6072   37.3375   -5.3447 H           1 MOL       0.2580
     34 H7          1.8779   37.9979   -4.3971 H           1 MOL       0.0500
     35 H8         -0.4685   38.6177   -4.0149 H           1 MOL       0.0381
     36 H9         -1.7340   37.4121   -4.0464 H           1 MOL       0.0381
     37 H10        -1.7787   38.7028   -6.1295 H           1 MOL       0.0247
     38 H11        -1.3574   37.0177   -6.4864 H           1 MOL       0.0247
     39 H12        -0.0939   38.2703   -6.4841 H           1 MOL       0.0247
     40 H13        -1.8313   35.4136   -3.3721 H           1 MOL       0.2463
     41 H14         0.7021   33.3606   -3.6205 H           1 MOL       0.0450
     42 H15         3.0711   33.4606   -2.6087 H           1 MOL       0.2473
@<TRIPOS>BOND
     1     1     2  ar
     2     1     9  ar
     3     2     3   1
     4     2     6  ar
     5     3     4   1
     6     4     5   1
     7     5     6   1
     8     6     7  ar
     9     7     8  ar
    10     8     9  ar
    11     9    10   1
    12    10    11   2
    13    10    16   1
    14    11    12   1
    15    11    15   1
    16    12    13  ar
    17    12    14  ar
    18    15    17   1
    19    16    17   2
    20    16    18   1
    21    18    19  ar
    22    18    26  ar
    23    19    20  ar
    24    20    21   1
    25    20    23  ar
    26    21    22   1
    27    23    24   1
    28    23    25  ar
    29    25    26  ar
    30    26    27   1
    31     1    28   1
    32     4    29   1
    33     4    30   1
    34     7    31   1
    35     8    32   1
    36    15    33   1
    37    19    34   1
    38    21    35   1
    39    21    36   1
    40    22    37   1
    41    22    38   1
    42    22    39   1
    43    24    40   1
    44    25    41   1
    45    27    42   1
@<TRIPOS>SUBSTRUCTURE
     1  MOL      1

