@<TRIPOS>MOLECULE
1yc1_ligand_040
    42    45
SMALL
GAST_HUCK
****
This file was generated by PARSER (from files_GN.cpp)

@<TRIPOS>ATOM
      1 C15         2.4613   37.8207   -3.7482 C.ar        1 MOL      -0.0397
      2 C12         1.2339   37.5936   -3.1104 C.ar        1 MOL       0.1203
      3 O17         0.2012   38.4477   -3.0267 O.3         1 MOL      -0.2917
      4 C19        -0.6743   37.7390   -2.1321 C.3         1 MOL       0.1865
      5 O18        -0.2474   36.3783   -1.9218 O.3         1 MOL      -0.2923
      6 C16         0.9741   36.3881   -2.4796 C.ar        1 MOL       0.1209
      7 C22         1.9227   35.3512   -2.4795 C.ar        1 MOL      -0.0435
      8 C20         3.1626   35.5625   -3.1127 C.ar        1 MOL      -0.0793
      9 C8          3.4448   36.8035   -3.7408 C.ar        1 MOL      -0.0502
     10 C4          4.7254   37.0840   -4.2690 C.2         1 MOL       0.0106
     11 C1          5.0005   37.5133   -5.5702 C.2         1 MOL       0.1253
     12 C7          4.1187   37.7053   -6.6532 C.2         1 MOL       0.0928
     13 O21         2.8545   37.2247   -6.6592 O.co2       1 MOL      -0.5584
     14 O23         4.5044   38.4203   -7.7298 O.co2       1 MOL      -0.5584
     15 N5          6.3240   37.7332   -5.6150 N.pl3       1 MOL      -0.2108
     16 C2          5.9539   37.1069   -3.5820 C.2         1 MOL       0.0398
     17 N3          6.8814   37.5042   -4.4742 N.2         1 MOL      -0.2144
     18 C6          6.2560   36.8490   -2.2071 C.ar        1 MOL       0.0020
     19 C10         5.2870   37.0618   -1.1930 C.ar        1 MOL      -0.0679
     20 C14         5.5188   36.7179    0.1618 C.ar        1 MOL      -0.0234
     21 C26         4.4161   36.7935    1.1731 C.3         1 MOL      -0.0285
     22 C27         3.3923   37.9449    1.0280 C.3         1 MOL      -0.0583
     23 C13         6.7915   36.1990    0.5128 C.ar        1 MOL       0.0829
     24 O25         7.0816   35.7956    1.7754 O.3         1 MOL      -0.3383
     25 C11         7.7989   36.0684   -0.4571 C.ar        1 MOL      -0.0091
     26 C9          7.5374   36.3879   -1.8015 C.ar        1 MOL       0.0835
     27 O24         8.5468   36.2053   -2.6917 O.3         1 MOL      -0.3373
     28 H1          2.6345   38.7318   -4.1810 H           1 MOL       0.0474
     29 H2         -1.6829   37.7344   -2.5465 H           1 MOL       0.0973
     30 H3         -0.6935   38.2644   -1.1736 H           1 MOL       0.0973
     31 H4          1.7177   34.4676   -2.0125 H           1 MOL       0.0506
     32 H5          3.8658   34.8207   -3.0946 H           1 MOL       0.0470
     33 H6          6.8134   38.0184   -6.3997 H           1 MOL       0.2580
     34 H7          4.3913   37.4792   -1.4456 H           1 MOL       0.0500
     35 H8          4.8394   36.8868    2.1751 H           1 MOL       0.0381
     36 H9          3.8819   35.8406    1.1322 H           1 MOL       0.0381
     37 H10         2.7599   37.9943    1.9230 H           1 MOL       0.0247
     38 H11         2.7483   37.7694    0.1599 H           1 MOL       0.0247
     39 H12         3.9118   38.9014    0.9139 H           1 MOL       0.0247
     40 H13         6.3406   35.2058    2.0287 H           1 MOL       0.2463
     41 H14         8.7134   35.7014   -0.1871 H           1 MOL       0.0450
     42 H15         8.6439   35.2355   -2.7286 H           1 MOL       0.2473
@<TRIPOS>BOND
     1     1     2  ar
     2     1     9  ar
     3     2     3   1
     4     2     6  ar
     5     3     4   1
     6     4     5   1
     7     5     6   1
     8     6     7  ar
     9     7     8  ar
    10     8     9  ar
    11     9    10   1
    12    10    11   2
    13    10    16   1
    14    11    12   1
    15    11    15   1
    16    12    13  ar
    17    12    14  ar
    18    15    17   1
    19    16    17   2
    20    16    18   1
    21    18    19  ar
    22    18    26  ar
    23    19    20  ar
    24    20    21   1
    25    20    23  ar
    26    21    22   1
    27    23    24   1
    28    23    25  ar
    29    25    26  ar
    30    26    27   1
    31     1    28   1
    32     4    29   1
    33     4    30   1
    34     7    31   1
    35     8    32   1
    36    15    33   1
    37    19    34   1
    38    21    35   1
    39    21    36   1
    40    22    37   1
    41    22    38   1
    42    22    39   1
    43    24    40   1
    44    25    41   1
    45    27    42   1
@<TRIPOS>SUBSTRUCTURE
     1  MOL      1

