@<TRIPOS>MOLECULE
1yc1_ligand_032
    42    45
SMALL
GAST_HUCK
****
This file was generated by PARSER (from files_GN.cpp)

@<TRIPOS>ATOM
      1 C15         3.6366   38.1330    1.0612 C.ar        1 MOL      -0.0397
      2 C12         2.7501   38.9011    1.8341 C.ar        1 MOL       0.1203
      3 O17         2.7897   39.0858    3.1687 O.3         1 MOL      -0.2917
      4 C19         1.5323   39.7582    3.3830 C.3         1 MOL       0.1865
      5 O18         0.9995   40.2942    2.1602 O.3         1 MOL      -0.2923
      6 C16         1.7043   39.5925    1.2527 C.ar        1 MOL       0.1209
      7 C22         1.4956   39.5170   -0.1302 C.ar        1 MOL      -0.0435
      8 C20         2.3384   38.6921   -0.9075 C.ar        1 MOL      -0.0793
      9 C8          3.4259   37.9675   -0.3397 C.ar        1 MOL      -0.0502
     10 C4          4.3103   37.1411   -1.1379 C.2         1 MOL       0.0106
     11 C1          5.1919   36.1321   -0.6960 C.2         1 MOL       0.1253
     12 C7          5.3384   35.5162    0.5600 C.2         1 MOL       0.0928
     13 O21         6.4933   34.8918    0.8819 O.co2       1 MOL      -0.5584
     14 O23         4.2750   35.3603    1.3870 O.co2       1 MOL      -0.5584
     15 N5          5.9202   35.7347   -1.7522 N.pl3       1 MOL      -0.2108
     16 C2          4.5661   37.1930   -2.5251 C.2         1 MOL       0.0398
     17 N3          5.5542   36.3361   -2.8266 N.2         1 MOL      -0.2144
     18 C6          3.9754   37.9520   -3.5523 C.ar        1 MOL       0.0020
     19 C10         2.7636   37.5142   -4.1353 C.ar        1 MOL      -0.0679
     20 C14         2.0889   38.2817   -5.1131 C.ar        1 MOL      -0.0234
     21 C26         0.7265   37.8621   -5.5594 C.3         1 MOL      -0.0285
     22 C27         0.6470   36.4412   -6.1642 C.3         1 MOL      -0.0583
     23 C13         2.7008   39.4827   -5.5589 C.ar        1 MOL       0.0829
     24 O25         2.0912   40.2762   -6.4833 O.3         1 MOL      -0.3383
     25 C11         3.9417   39.8923   -5.0299 C.ar        1 MOL      -0.0091
     26 C9          4.5837   39.1334   -4.0335 C.ar        1 MOL       0.0835
     27 O24         5.7678   39.5602   -3.5230 O.3         1 MOL      -0.3373
     28 H1          4.4353   37.7214    1.5439 H           1 MOL       0.0474
     29 H2          1.6795   40.5651    4.0982 H           1 MOL       0.0973
     30 H3          0.8117   39.0524    3.8049 H           1 MOL       0.0973
     31 H4          0.7336   40.0376   -0.5698 H           1 MOL       0.0506
     32 H5          2.1184   38.6377   -1.8947 H           1 MOL       0.0470
     33 H6          6.6064   35.0448   -1.7340 H           1 MOL       0.2580
     34 H7          2.3342   36.6497   -3.7879 H           1 MOL       0.0500
     35 H8          0.3249   38.5549   -6.3061 H           1 MOL       0.0381
     36 H9          0.0533   37.9092   -4.6979 H           1 MOL       0.0381
     37 H10        -0.3356   36.2845   -6.6101 H           1 MOL       0.0247
     38 H11         0.7909   35.6826   -5.3901 H           1 MOL       0.0247
     39 H12         1.4082   36.3070   -6.9355 H           1 MOL       0.0247
     40 H13         2.8087   40.7621   -6.9421 H           1 MOL       0.2463
     41 H14         4.3748   40.7598   -5.3565 H           1 MOL       0.0450
     42 H15         6.3358   39.7276   -4.3040 H           1 MOL       0.2473
@<TRIPOS>BOND
     1     1     2  ar
     2     1     9  ar
     3     2     3   1
     4     2     6  ar
     5     3     4   1
     6     4     5   1
     7     5     6   1
     8     6     7  ar
     9     7     8  ar
    10     8     9  ar
    11     9    10   1
    12    10    11   2
    13    10    16   1
    14    11    12   1
    15    11    15   1
    16    12    13  ar
    17    12    14  ar
    18    15    17   1
    19    16    17   2
    20    16    18   1
    21    18    19  ar
    22    18    26  ar
    23    19    20  ar
    24    20    21   1
    25    20    23  ar
    26    21    22   1
    27    23    24   1
    28    23    25  ar
    29    25    26  ar
    30    26    27   1
    31     1    28   1
    32     4    29   1
    33     4    30   1
    34     7    31   1
    35     8    32   1
    36    15    33   1
    37    19    34   1
    38    21    35   1
    39    21    36   1
    40    22    37   1
    41    22    38   1
    42    22    39   1
    43    24    40   1
    44    25    41   1
    45    27    42   1
@<TRIPOS>SUBSTRUCTURE
     1  MOL      1

