@<TRIPOS>MOLECULE
1yc1_ligand_015
    42    45
SMALL
GAST_HUCK
****
This file was generated by PARSER (from files_GN.cpp)

@<TRIPOS>ATOM
      1 C15         3.8670   37.5229    1.2533 C.ar        1 MOL      -0.0397
      2 C12         3.6286   38.9003    1.3836 C.ar        1 MOL       0.1203
      3 O17         3.2524   39.5649    2.4894 O.3         1 MOL      -0.2917
      4 C19         2.9038   40.8555    1.9384 C.3         1 MOL       0.1865
      5 O18         3.4050   41.0126    0.5982 O.3         1 MOL      -0.2923
      6 C16         3.7371   39.7473    0.2895 C.ar        1 MOL       0.1209
      7 C22         4.1068   39.2511   -0.9720 C.ar        1 MOL      -0.0435
      8 C20         4.3931   37.8780   -1.1095 C.ar        1 MOL      -0.0793
      9 C8          4.2556   36.9998   -0.0043 C.ar        1 MOL      -0.0502
     10 C4          4.4010   35.6003   -0.1685 C.2         1 MOL       0.0106
     11 C1          5.3244   34.8080    0.5102 C.2         1 MOL       0.1253
     12 C7          6.3068   35.1779    1.4426 C.2         1 MOL       0.0928
     13 O21         6.1129   34.9126    2.7534 O.co2       1 MOL      -0.5584
     14 O23         7.4268   35.8148    1.0410 O.co2       1 MOL      -0.5584
     15 N5          5.1216   33.5432    0.1225 N.pl3       1 MOL      -0.2108
     16 C2          3.6305   34.7056   -0.9379 C.2         1 MOL       0.0398
     17 N3          4.1391   33.4801   -0.7074 N.2         1 MOL      -0.2144
     18 C6          2.4746   34.9060   -1.7650 C.ar        1 MOL       0.0020
     19 C10         1.6743   36.0713   -1.6508 C.ar        1 MOL      -0.0679
     20 C14         0.5512   36.3172   -2.4696 C.ar        1 MOL      -0.0234
     21 C26        -0.1502   37.6308   -2.3737 C.3         1 MOL      -0.0285
     22 C27         0.6295   38.7579   -3.0932 C.3         1 MOL      -0.0583
     23 C13         0.1594   35.3144   -3.3885 C.ar        1 MOL       0.0829
     24 O25        -0.9434   35.4434   -4.1741 O.3         1 MOL      -0.3383
     25 C11         0.9081   34.1282   -3.5038 C.ar        1 MOL      -0.0091
     26 C9          2.0517   33.9229   -2.7038 C.ar        1 MOL       0.0835
     27 O24         2.7102   32.7547   -2.8962 O.3         1 MOL      -0.3373
     28 H1          3.7197   36.9096    2.0582 H           1 MOL       0.0474
     29 H2          3.3178   41.6441    2.5648 H           1 MOL       0.0973
     30 H3          1.8163   40.9614    1.9288 H           1 MOL       0.0973
     31 H4          4.1645   39.8806   -1.7734 H           1 MOL       0.0506
     32 H5          4.6835   37.5202   -2.0217 H           1 MOL       0.0470
     33 H6          5.6377   32.7825    0.4310 H           1 MOL       0.2580
     34 H7          1.8855   36.7519   -0.9266 H           1 MOL       0.0500
     35 H8         -0.2786   37.9092   -1.3220 H           1 MOL       0.0381
     36 H9         -1.1567   37.5826   -2.7997 H           1 MOL       0.0381
     37 H10         0.0980   39.7002   -2.9971 H           1 MOL       0.0247
     38 H11         0.7425   38.5299   -4.1556 H           1 MOL       0.0247
     39 H12         1.6216   38.8742   -2.6516 H           1 MOL       0.0247
     40 H13        -1.6504   35.7806   -3.5821 H           1 MOL       0.2463
     41 H14         0.6081   33.3994   -4.1553 H           1 MOL       0.0450
     42 H15         2.5717   32.2488   -2.0662 H           1 MOL       0.2473
@<TRIPOS>BOND
     1     1     2  ar
     2     1     9  ar
     3     2     3   1
     4     2     6  ar
     5     3     4   1
     6     4     5   1
     7     5     6   1
     8     6     7  ar
     9     7     8  ar
    10     8     9  ar
    11     9    10   1
    12    10    11   2
    13    10    16   1
    14    11    12   1
    15    11    15   1
    16    12    13  ar
    17    12    14  ar
    18    15    17   1
    19    16    17   2
    20    16    18   1
    21    18    19  ar
    22    18    26  ar
    23    19    20  ar
    24    20    21   1
    25    20    23  ar
    26    21    22   1
    27    23    24   1
    28    23    25  ar
    29    25    26  ar
    30    26    27   1
    31     1    28   1
    32     4    29   1
    33     4    30   1
    34     7    31   1
    35     8    32   1
    36    15    33   1
    37    19    34   1
    38    21    35   1
    39    21    36   1
    40    22    37   1
    41    22    38   1
    42    22    39   1
    43    24    40   1
    44    25    41   1
    45    27    42   1
@<TRIPOS>SUBSTRUCTURE
     1  MOL      1

