@<TRIPOS>MOLECULE
1yc1_ligand_017
    42    45
SMALL
GAST_HUCK
****
This file was generated by PARSER (from files_GN.cpp)

@<TRIPOS>ATOM
      1 C15         3.1106   34.6788   -3.9367 C.ar        1 MOL      -0.0397
      2 C12         1.9556   33.9416   -3.6200 C.ar        1 MOL       0.1203
      3 O17         1.8274   32.6025   -3.5666 O.3         1 MOL      -0.2917
      4 C19         0.4045   32.4588   -3.3874 C.3         1 MOL       0.1865
      5 O18        -0.2005   33.6991   -2.9737 O.3         1 MOL      -0.2923
      6 C16         0.7705   34.5825   -3.2817 C.ar        1 MOL       0.1209
      7 C22         0.6818   35.9826   -3.2782 C.ar        1 MOL      -0.0435
      8 C20         1.8233   36.7385   -3.6233 C.ar        1 MOL      -0.0793
      9 C8          3.0451   36.0914   -3.9280 C.ar        1 MOL      -0.0502
     10 C4          4.2038   36.8590   -4.1843 C.2         1 MOL       0.0106
     11 C1          4.5286   37.4997   -5.3811 C.2         1 MOL       0.1253
     12 C7          3.8085   37.5938   -6.5900 C.2         1 MOL       0.0928
     13 O21         4.4033   38.0998   -7.6885 O.co2       1 MOL      -0.5584
     14 O23         2.5187   37.1970   -6.6965 O.co2       1 MOL      -0.5584
     15 N5          5.7483   38.0314   -5.2059 N.pl3       1 MOL      -0.2108
     16 C2          5.2998   37.0499   -3.3336 C.2         1 MOL       0.0398
     17 N3          6.2035   37.7708   -4.0257 N.2         1 MOL      -0.2144
     18 C6          5.5643   36.6066   -1.9996 C.ar        1 MOL       0.0020
     19 C10         6.9010   36.2929   -1.6476 C.ar        1 MOL      -0.0679
     20 C14         7.2818   35.9408   -0.3319 C.ar        1 MOL      -0.0234
     21 C26         8.7098   35.6622    0.0076 C.3         1 MOL      -0.0285
     22 C27         9.7527   36.6202   -0.6200 C.3         1 MOL      -0.0583
     23 C13         6.2616   35.8073    0.6386 C.ar        1 MOL       0.0829
     24 O25         6.5325   35.3869    1.8971 O.3         1 MOL      -0.3383
     25 C11         4.9253   36.0951    0.3115 C.ar        1 MOL      -0.0091
     26 C9          4.5768   36.5231   -0.9815 C.ar        1 MOL       0.0835
     27 O24         3.2945   36.9247   -1.1486 O.3         1 MOL      -0.3373
     28 H1          3.9747   34.1876   -4.1670 H           1 MOL       0.0474
     29 H2          0.2113   31.6924   -2.6359 H           1 MOL       0.0973
     30 H3         -0.0471   32.1356   -4.3306 H           1 MOL       0.0973
     31 H4         -0.1884   36.4448   -3.0156 H           1 MOL       0.0506
     32 H5          1.7651   37.7600   -3.6055 H           1 MOL       0.0470
     33 H6          6.2417   38.5451   -5.8652 H           1 MOL       0.2580
     34 H7          7.6246   36.3299   -2.3714 H           1 MOL       0.0500
     35 H8          8.9430   34.6436   -0.3037 H           1 MOL       0.0381
     36 H9          8.8602   35.7142    1.0873 H           1 MOL       0.0381
     37 H10        10.7304   36.4749   -0.1536 H           1 MOL       0.0247
     38 H11         9.4547   37.6592   -0.4756 H           1 MOL       0.0247
     39 H12         9.8597   36.4296   -1.6915 H           1 MOL       0.0247
     40 H13         6.2150   34.4615    1.9372 H           1 MOL       0.2463
     41 H14         4.1981   36.0253    1.0291 H           1 MOL       0.0450
     42 H15         3.3461   37.8947   -1.1938 H           1 MOL       0.2473
@<TRIPOS>BOND
     1     1     2  ar
     2     1     9  ar
     3     2     3   1
     4     2     6  ar
     5     3     4   1
     6     4     5   1
     7     5     6   1
     8     6     7  ar
     9     7     8  ar
    10     8     9  ar
    11     9    10   1
    12    10    11   2
    13    10    16   1
    14    11    12   1
    15    11    15   1
    16    12    13  ar
    17    12    14  ar
    18    15    17   1
    19    16    17   2
    20    16    18   1
    21    18    19  ar
    22    18    26  ar
    23    19    20  ar
    24    20    21   1
    25    20    23  ar
    26    21    22   1
    27    23    24   1
    28    23    25  ar
    29    25    26  ar
    30    26    27   1
    31     1    28   1
    32     4    29   1
    33     4    30   1
    34     7    31   1
    35     8    32   1
    36    15    33   1
    37    19    34   1
    38    21    35   1
    39    21    36   1
    40    22    37   1
    41    22    38   1
    42    22    39   1
    43    24    40   1
    44    25    41   1
    45    27    42   1
@<TRIPOS>SUBSTRUCTURE
     1  MOL      1

