@<TRIPOS>MOLECULE
1yc1_ligand_018
    42    45
SMALL
GAST_HUCK
****
This file was generated by PARSER (from files_GN.cpp)

@<TRIPOS>ATOM
      1 C15         3.2697   37.4949  -11.5947 C.ar        1 MOL      -0.0397
      2 C12         4.5350   38.0769  -11.7735 C.ar        1 MOL       0.1203
      3 O17         4.8909   39.0047  -12.6786 O.3         1 MOL      -0.2917
      4 C19         6.3173   38.9778  -12.5436 C.3         1 MOL       0.1865
      5 O18         6.7033   38.4324  -11.2723 O.3         1 MOL      -0.2923
      6 C16         5.6061   37.7371  -10.9536 C.ar        1 MOL       0.1209
      7 C22         5.4525   36.7792   -9.9323 C.ar        1 MOL      -0.0435
      8 C20         4.2027   36.1562   -9.7718 C.ar        1 MOL      -0.0793
      9 C8          3.0906   36.4952  -10.5992 C.ar        1 MOL      -0.0502
     10 C4          1.8491   35.8088  -10.4650 C.2         1 MOL       0.0106
     11 C1          1.2282   35.3761   -9.2877 C.2         1 MOL       0.1253
     12 C7          1.5778   35.5277   -7.9334 C.2         1 MOL       0.0928
     13 O21         1.3561   34.5208   -7.0542 O.co2       1 MOL      -0.5584
     14 O23         2.1638   36.6597   -7.4694 O.co2       1 MOL      -0.5584
     15 N5          0.1332   34.6852   -9.6464 N.pl3       1 MOL      -0.2108
     16 C2          1.0480   35.2969  -11.4910 C.2         1 MOL       0.0398
     17 N3          0.0169   34.6416  -10.9332 N.2         1 MOL      -0.2144
     18 C6          1.2998   35.2497  -12.8757 C.ar        1 MOL       0.0020
     19 C10         0.7052   36.2022  -13.7344 C.ar        1 MOL      -0.0679
     20 C14         0.8989   36.1459  -15.1400 C.ar        1 MOL      -0.0234
     21 C26         0.2498   37.1495  -16.0301 C.3         1 MOL      -0.0285
     22 C27        -0.9295   36.5465  -16.8381 C.3         1 MOL      -0.0583
     23 C13         1.7299   35.1312  -15.6747 C.ar        1 MOL       0.0829
     24 O25         1.9986   35.0624  -17.0072 O.3         1 MOL      -0.3383
     25 C11         2.3126   34.1736  -14.8252 C.ar        1 MOL      -0.0091
     26 C9          2.0927   34.2170  -13.4359 C.ar        1 MOL       0.0835
     27 O24         2.6460   33.2394  -12.6773 O.3         1 MOL      -0.3373
     28 H1          2.4910   37.7855  -12.1927 H           1 MOL       0.0474
     29 H2          6.7247   39.9892  -12.6429 H           1 MOL       0.0973
     30 H3          6.7623   38.3602  -13.3489 H           1 MOL       0.0973
     31 H4          6.2476   36.5174   -9.3534 H           1 MOL       0.0506
     32 H5          4.1209   35.4168   -9.0668 H           1 MOL       0.0470
     33 H6         -0.4801   34.2692   -9.0147 H           1 MOL       0.2580
     34 H7          0.1045   36.9214  -13.3355 H           1 MOL       0.0500
     35 H8          0.9876   37.5653  -16.7250 H           1 MOL       0.0381
     36 H9         -0.1373   37.9976  -15.4513 H           1 MOL       0.0381
     37 H10        -1.4093   37.3365  -17.4376 H           1 MOL       0.0247
     38 H11        -1.6816   36.1278  -16.1524 H           1 MOL       0.0247
     39 H12        -0.5761   35.7537  -17.5116 H           1 MOL       0.0247
     40 H13         1.4962   34.2826  -17.3304 H           1 MOL       0.2463
     41 H14         2.8945   33.4352  -15.2260 H           1 MOL       0.0450
     42 H15         3.1483   33.7149  -11.9858 H           1 MOL       0.2473
@<TRIPOS>BOND
     1     1     2  ar
     2     1     9  ar
     3     2     3   1
     4     2     6  ar
     5     3     4   1
     6     4     5   1
     7     5     6   1
     8     6     7  ar
     9     7     8  ar
    10     8     9  ar
    11     9    10   1
    12    10    11   2
    13    10    16   1
    14    11    12   1
    15    11    15   1
    16    12    13  ar
    17    12    14  ar
    18    15    17   1
    19    16    17   2
    20    16    18   1
    21    18    19  ar
    22    18    26  ar
    23    19    20  ar
    24    20    21   1
    25    20    23  ar
    26    21    22   1
    27    23    24   1
    28    23    25  ar
    29    25    26  ar
    30    26    27   1
    31     1    28   1
    32     4    29   1
    33     4    30   1
    34     7    31   1
    35     8    32   1
    36    15    33   1
    37    19    34   1
    38    21    35   1
    39    21    36   1
    40    22    37   1
    41    22    38   1
    42    22    39   1
    43    24    40   1
    44    25    41   1
    45    27    42   1
@<TRIPOS>SUBSTRUCTURE
     1  MOL      1

