@<TRIPOS>MOLECULE
1yc1_ligand_020
    42    45
SMALL
GAST_HUCK
****
This file was generated by PARSER (from files_GN.cpp)

@<TRIPOS>ATOM
      1 C15         4.1003   37.1596   -5.3415 C.ar        1 MOL      -0.0397
      2 C12         3.8124   38.3489   -6.0309 C.ar        1 MOL       0.1203
      3 O17         4.6703   39.1023   -6.7425 O.3         1 MOL      -0.2917
      4 C19         3.8635   40.2609   -7.0227 C.3         1 MOL       0.1865
      5 O18         2.4643   39.9942   -6.7968 O.3         1 MOL      -0.2923
      6 C16         2.5267   38.8641   -6.0665 C.ar        1 MOL       0.1209
      7 C22         1.4758   38.2043   -5.4095 C.ar        1 MOL      -0.0435
      8 C20         1.7576   37.0244   -4.6889 C.ar        1 MOL      -0.0793
      9 C8          3.0712   36.4809   -4.6400 C.ar        1 MOL      -0.0502
     10 C4          3.3443   35.2682   -3.9437 C.2         1 MOL       0.0106
     11 C1          4.4320   34.9932   -3.1078 C.2         1 MOL       0.1253
     12 C7          5.4972   35.8179   -2.7272 C.2         1 MOL       0.0928
     13 O21         6.6513   35.8040   -3.4342 O.co2       1 MOL      -0.5584
     14 O23         5.4065   36.5953   -1.6261 O.co2       1 MOL      -0.5584
     15 N5          4.2563   33.7657   -2.6016 N.pl3       1 MOL      -0.2108
     16 C2          2.5594   34.1052   -3.8837 C.2         1 MOL       0.0398
     17 N3          3.1644   33.2414   -3.0482 N.2         1 MOL      -0.2144
     18 C6          1.3557   33.7764   -4.5611 C.ar        1 MOL       0.0020
     19 C10         0.2815   33.1959   -3.8440 C.ar        1 MOL      -0.0679
     20 C14        -0.9440   32.8573   -4.4717 C.ar        1 MOL      -0.0234
     21 C26        -2.0557   32.2839   -3.6578 C.3         1 MOL      -0.0285
     22 C27        -2.6843   33.3206   -2.6994 C.3         1 MOL      -0.0583
     23 C13        -1.0749   33.0873   -5.8632 C.ar        1 MOL       0.0829
     24 O25        -2.1906   32.7417   -6.5516 O.3         1 MOL      -0.3383
     25 C11        -0.0202   33.6674   -6.5876 C.ar        1 MOL      -0.0091
     26 C9          1.1886   33.9991   -5.9488 C.ar        1 MOL       0.0835
     27 O24         2.1977   34.4725   -6.7197 O.3         1 MOL      -0.3373
     28 H1          5.0517   36.7914   -5.3764 H           1 MOL       0.0474
     29 H2          4.0201   40.5587   -8.0613 H           1 MOL       0.0973
     30 H3          4.1792   41.0887   -6.3801 H           1 MOL       0.0973
     31 H4          0.5243   38.5791   -5.4541 H           1 MOL       0.0506
     32 H5          0.9917   36.5682   -4.1903 H           1 MOL       0.0470
     33 H6          4.8551   33.3388   -1.9700 H           1 MOL       0.2580
     34 H7          0.3861   33.0304   -2.8371 H           1 MOL       0.0500
     35 H8         -1.6776   31.4390   -3.0770 H           1 MOL       0.0381
     36 H9         -2.8568   31.8934   -4.2895 H           1 MOL       0.0381
     37 H10        -3.4855   32.8526   -2.1250 H           1 MOL       0.0247
     38 H11        -3.1032   34.1531   -3.2684 H           1 MOL       0.0247
     39 H12        -1.9415   33.7042   -1.9987 H           1 MOL       0.0247
     40 H13        -2.2569   31.7683   -6.4447 H           1 MOL       0.2463
     41 H14        -0.1257   33.8277   -7.5936 H           1 MOL       0.0450
     42 H15         1.9604   35.4086   -6.8754 H           1 MOL       0.2473
@<TRIPOS>BOND
     1     1     2  ar
     2     1     9  ar
     3     2     3   1
     4     2     6  ar
     5     3     4   1
     6     4     5   1
     7     5     6   1
     8     6     7  ar
     9     7     8  ar
    10     8     9  ar
    11     9    10   1
    12    10    11   2
    13    10    16   1
    14    11    12   1
    15    11    15   1
    16    12    13  ar
    17    12    14  ar
    18    15    17   1
    19    16    17   2
    20    16    18   1
    21    18    19  ar
    22    18    26  ar
    23    19    20  ar
    24    20    21   1
    25    20    23  ar
    26    21    22   1
    27    23    24   1
    28    23    25  ar
    29    25    26  ar
    30    26    27   1
    31     1    28   1
    32     4    29   1
    33     4    30   1
    34     7    31   1
    35     8    32   1
    36    15    33   1
    37    19    34   1
    38    21    35   1
    39    21    36   1
    40    22    37   1
    41    22    38   1
    42    22    39   1
    43    24    40   1
    44    25    41   1
    45    27    42   1
@<TRIPOS>SUBSTRUCTURE
     1  MOL      1

