@<TRIPOS>MOLECULE
1yc1_ligand_016
    42    45
SMALL
GAST_HUCK
****
This file was generated by PARSER (from files_GN.cpp)

@<TRIPOS>ATOM
      1 C15         1.5988   34.5543   -2.1076 C.ar        1 MOL      -0.0397
      2 C12         2.9596   34.6128   -1.7686 C.ar        1 MOL       0.1203
      3 O17         3.7998   35.6528   -1.9373 O.3         1 MOL      -0.2917
      4 C19         5.0618   35.0541   -1.5874 C.3         1 MOL       0.1865
      5 O18         4.8816   33.8090   -0.8848 O.3         1 MOL      -0.2923
      6 C16         3.5906   33.5400   -1.1565 C.ar        1 MOL       0.1209
      7 C22         2.8840   32.3600   -0.8723 C.ar        1 MOL      -0.0435
      8 C20         1.5285   32.2725   -1.2472 C.ar        1 MOL      -0.0793
      9 C8          0.8604   33.3739   -1.8475 C.ar        1 MOL      -0.0502
     10 C4         -0.5236   33.2843   -2.1609 C.2         1 MOL       0.0106
     11 C1         -1.5332   32.6873   -1.3952 C.2         1 MOL       0.1253
     12 C7         -1.4942   32.1481   -0.0937 C.2         1 MOL       0.0928
     13 O21        -2.5102   31.3735    0.3497 O.co2       1 MOL      -0.5584
     14 O23        -0.5147   32.4633    0.7804 O.co2       1 MOL      -0.5584
     15 N5         -2.6533   32.7300   -2.1326 N.pl3       1 MOL      -0.2108
     16 C2         -1.1613   33.6839   -3.3416 C.2         1 MOL       0.0398
     17 N3         -2.4459   33.3053   -3.2727 N.2         1 MOL      -0.2144
     18 C6         -0.6226   34.3095   -4.4861 C.ar        1 MOL       0.0020
     19 C10        -0.4943   35.7146   -4.5221 C.ar        1 MOL      -0.0679
     20 C14         0.0337   36.3832   -5.6526 C.ar        1 MOL      -0.0234
     21 C26         0.2365   37.8606   -5.5929 C.3         1 MOL      -0.0285
     22 C27        -1.0961   38.6387   -5.6042 C.3         1 MOL      -0.0583
     23 C13         0.3706   35.6154   -6.7953 C.ar        1 MOL       0.0829
     24 O25         0.8504   36.2134   -7.9185 O.3         1 MOL      -0.3383
     25 C11         0.2190   34.2149   -6.7742 C.ar        1 MOL      -0.0091
     26 C9         -0.2682   33.5601   -5.6283 C.ar        1 MOL       0.0835
     27 O24        -0.3771   32.2084   -5.6515 O.3         1 MOL      -0.3373
     28 H1          1.1555   35.3805   -2.5027 H           1 MOL       0.0474
     29 H2          5.6248   35.7486   -0.9608 H           1 MOL       0.0973
     30 H3          5.6349   34.8657   -2.5012 H           1 MOL       0.0973
     31 H4          3.3463   31.5822   -0.4039 H           1 MOL       0.0506
     32 H5          1.0280   31.3991   -1.0581 H           1 MOL       0.0470
     33 H6         -3.5115   32.3660   -1.8640 H           1 MOL       0.2580
     34 H7         -0.7670   36.2629   -3.6991 H           1 MOL       0.0500
     35 H8          0.8397   38.2203   -6.4276 H           1 MOL       0.0381
     36 H9          0.7900   38.1053   -4.6817 H           1 MOL       0.0381
     37 H10        -0.9006   39.7133   -5.6018 H           1 MOL       0.0247
     38 H11        -1.6861   38.3917   -4.7219 H           1 MOL       0.0247
     39 H12        -1.6708   38.3880   -6.4975 H           1 MOL       0.0247
     40 H13         0.7619   35.5548   -8.6454 H           1 MOL       0.2463
     41 H14         0.4659   33.6673   -7.6002 H           1 MOL       0.0450
     42 H15        -1.2680   32.0345   -6.0341 H           1 MOL       0.2473
@<TRIPOS>BOND
     1     1     2  ar
     2     1     9  ar
     3     2     3   1
     4     2     6  ar
     5     3     4   1
     6     4     5   1
     7     5     6   1
     8     6     7  ar
     9     7     8  ar
    10     8     9  ar
    11     9    10   1
    12    10    11   2
    13    10    16   1
    14    11    12   1
    15    11    15   1
    16    12    13  ar
    17    12    14  ar
    18    15    17   1
    19    16    17   2
    20    16    18   1
    21    18    19  ar
    22    18    26  ar
    23    19    20  ar
    24    20    21   1
    25    20    23  ar
    26    21    22   1
    27    23    24   1
    28    23    25  ar
    29    25    26  ar
    30    26    27   1
    31     1    28   1
    32     4    29   1
    33     4    30   1
    34     7    31   1
    35     8    32   1
    36    15    33   1
    37    19    34   1
    38    21    35   1
    39    21    36   1
    40    22    37   1
    41    22    38   1
    42    22    39   1
    43    24    40   1
    44    25    41   1
    45    27    42   1
@<TRIPOS>SUBSTRUCTURE
     1  MOL      1

