@<TRIPOS>MOLECULE
1yc1_ligand_034
    42    45
SMALL
GAST_HUCK
****
This file was generated by PARSER (from files_GN.cpp)

@<TRIPOS>ATOM
      1 C15         4.4911   38.4680   -0.6668 C.ar        1 MOL      -0.0397
      2 C12         4.1953   39.7960   -0.3139 C.ar        1 MOL       0.1203
      3 O17         4.5495   40.9078   -0.9831 O.3         1 MOL      -0.2917
      4 C19         3.8694   41.9319   -0.2332 C.3         1 MOL       0.1865
      5 O18         3.2574   41.4115    0.9631 O.3         1 MOL      -0.2923
      6 C16         3.4450   40.0868    0.8150 C.ar        1 MOL       0.1209
      7 C22         2.9794   39.0588    1.6520 C.ar        1 MOL      -0.0435
      8 C20         3.2355   37.7194    1.2931 C.ar        1 MOL      -0.0793
      9 C8          3.9437   37.4155    0.1023 C.ar        1 MOL      -0.0502
     10 C4          4.1321   36.0705   -0.2840 C.2         1 MOL       0.0106
     11 C1          5.0349   35.1978    0.3185 C.2         1 MOL       0.1253
     12 C7          6.0055   35.5070    1.2737 C.2         1 MOL       0.0928
     13 O21         5.8024   35.1824    2.5693 O.co2       1 MOL      -0.5584
     14 O23         7.2565   35.8086    0.8615 O.co2       1 MOL      -0.5584
     15 N5          4.7807   33.9716   -0.1536 N.pl3       1 MOL      -0.2108
     16 C2          3.3499   35.2765   -1.1376 C.2         1 MOL       0.0398
     17 N3          3.8024   34.0112   -1.0003 N.2         1 MOL      -0.2144
     18 C6          2.2177   35.5842   -1.9548 C.ar        1 MOL       0.0020
     19 C10         1.1541   34.6505   -2.0441 C.ar        1 MOL      -0.0679
     20 C14         0.0001   34.8865   -2.8296 C.ar        1 MOL      -0.0234
     21 C26        -1.0660   33.8459   -2.9041 C.3         1 MOL      -0.0285
     22 C27        -0.6798   32.6595   -3.8218 C.3         1 MOL      -0.0583
     23 C13        -0.1022   36.1130   -3.5253 C.ar        1 MOL       0.0829
     24 O25        -1.1845   36.4370   -4.2727 O.3         1 MOL      -0.3383
     25 C11         0.9491   37.0388   -3.4793 C.ar        1 MOL      -0.0091
     26 C9          2.1111   36.7646   -2.7335 C.ar        1 MOL       0.0835
     27 O24         3.1329   37.6382   -2.8661 O.3         1 MOL      -0.3373
     28 H1          5.0677   38.2783   -1.4917 H           1 MOL       0.0474
     29 H2          3.0969   42.3866   -0.8593 H           1 MOL       0.0973
     30 H3          4.5894   42.7056    0.0388 H           1 MOL       0.0973
     31 H4          2.4566   39.2811    2.5011 H           1 MOL       0.0506
     32 H5          2.8826   36.9717    1.8975 H           1 MOL       0.0470
     33 H6          5.2534   33.1651    0.1099 H           1 MOL       0.2580
     34 H7          1.2170   33.7676   -1.5300 H           1 MOL       0.0500
     35 H8         -2.0049   34.2645   -3.2791 H           1 MOL       0.0381
     36 H9         -1.2716   33.4691   -1.8964 H           1 MOL       0.0381
     37 H10        -1.5229   31.9711   -3.9075 H           1 MOL       0.0247
     38 H11         0.1698   32.1133   -3.4094 H           1 MOL       0.0247
     39 H12        -0.4193   33.0171   -4.8200 H           1 MOL       0.0247
     40 H13        -1.8915   36.6020   -3.6162 H           1 MOL       0.2463
     41 H14         0.8748   37.8997   -4.0258 H           1 MOL       0.0450
     42 H15         2.7459   38.5038   -2.6127 H           1 MOL       0.2473
@<TRIPOS>BOND
     1     1     2  ar
     2     1     9  ar
     3     2     3   1
     4     2     6  ar
     5     3     4   1
     6     4     5   1
     7     5     6   1
     8     6     7  ar
     9     7     8  ar
    10     8     9  ar
    11     9    10   1
    12    10    11   2
    13    10    16   1
    14    11    12   1
    15    11    15   1
    16    12    13  ar
    17    12    14  ar
    18    15    17   1
    19    16    17   2
    20    16    18   1
    21    18    19  ar
    22    18    26  ar
    23    19    20  ar
    24    20    21   1
    25    20    23  ar
    26    21    22   1
    27    23    24   1
    28    23    25  ar
    29    25    26  ar
    30    26    27   1
    31     1    28   1
    32     4    29   1
    33     4    30   1
    34     7    31   1
    35     8    32   1
    36    15    33   1
    37    19    34   1
    38    21    35   1
    39    21    36   1
    40    22    37   1
    41    22    38   1
    42    22    39   1
    43    24    40   1
    44    25    41   1
    45    27    42   1
@<TRIPOS>SUBSTRUCTURE
     1  MOL      1

