@<TRIPOS>MOLECULE
1z95_ligand_020
    43    44
SMALL
GAST_HUCK
****
This file was generated by PARSER (from files_GN.cpp)

@<TRIPOS>ATOM
      1 C16        23.4304    2.0423    3.3172 C.ar        1 MOL      -0.0388
      2 C17        24.0185    0.8426    2.8834 C.ar        1 MOL      -0.0264
      3 C18        24.7472    0.0441    3.7807 C.ar        1 MOL       0.1325
      4 F18        25.3280   -1.0418    3.3777 F           1 MOL      -0.1834
      5 C19        24.8715    0.4521    5.1252 C.ar        1 MOL      -0.0264
      6 C20        24.3237    1.6614    5.5485 C.ar        1 MOL      -0.0388
      7 C15        23.6070    2.4916    4.6501 C.ar        1 MOL       0.0840
      8 S14        23.0460    4.0626    5.1250 S.o2        1 MOL      -0.0030
      9 O14        21.4620    4.0918    4.9992 O.2         1 MOL      -0.1699
     10 O15        23.4348    4.3900    6.6412 O.2         1 MOL      -0.1699
     11 C13        23.7195    5.3301    4.0186 C.3         1 MOL       0.1063
     12 C11        25.2582    5.6352    4.0847 C.3         1 MOL       0.1678
     13 O11        25.6034    6.2575    2.8341 O.3         1 MOL      -0.3823
     14 C12        25.5584    6.7612    5.1234 C.3         1 MOL      -0.0271
     15 C10        26.0988    4.4439    4.2377 C.2         1 MOL       0.2588
     16 O10        26.2024    3.6758    3.2661 O.2         1 MOL      -0.3300
     17 N9         26.8717    4.2390    5.2998 N.am        1 MOL      -0.2188
     18 C1         27.9216    3.3724    5.3989 C.ar        1 MOL       0.1074
     19 C2         27.7492    1.9973    5.6314 C.ar        1 MOL       0.0010
     20 C6         29.2186    3.9107    5.3425 C.ar        1 MOL      -0.0005
     21 C5         30.3369    3.0706    5.4811 C.ar        1 MOL      -0.0119
     22 C4         30.1618    1.6940    5.6968 C.ar        1 MOL       0.1068
     23 C8         31.2458    0.9729    5.8367 C.1         1 MOL       0.1050
     24 N8         32.2061    0.3373    5.9650 N.1         1 MOL      -0.3259
     25 C3         28.8522    1.1234    5.7874 C.ar        1 MOL       0.0666
     26 C7         28.6388   -0.3335    6.0518 C.3         1 MOL       0.3787
     27 F7B        29.1909   -1.0804    5.0421 F           1 MOL      -0.2186
     28 F7C        29.1917   -0.6920    7.2564 F           1 MOL      -0.2186
     29 F7A        27.3058   -0.7340    6.1091 F           1 MOL      -0.2186
     30 H1         22.9097    2.6063    2.6564 H           1 MOL       0.0626
     31 H2         23.9174    0.5559    1.8972 H           1 MOL       0.0604
     32 H3         25.3877   -0.1342    5.7805 H           1 MOL       0.0604
     33 H4         24.4688    1.9684    6.5231 H           1 MOL       0.0626
     34 H5         23.1544    6.2494    4.2042 H           1 MOL       0.0518
     35 H6         23.4617    5.0237    3.0044 H           1 MOL       0.0518
     36 H7         26.3884    5.7719    2.4955 H           1 MOL       0.2079
     37 H8         26.6087    7.0555    5.0641 H           1 MOL       0.0244
     38 H9         25.3524    6.4224    6.1412 H           1 MOL       0.0244
     39 H10        24.9457    7.6473    4.9251 H           1 MOL       0.0244
     40 H11        26.8204    4.9146    6.0012 H           1 MOL       0.2319
     41 H12        26.8001    1.6452    5.7117 H           1 MOL       0.0781
     42 H13        29.3475    4.9128    5.1825 H           1 MOL       0.0767
     43 H14        31.2639    3.4854    5.4255 H           1 MOL       0.0766
@<TRIPOS>BOND
     1     1     2  ar
     2     1     7  ar
     3     2     3  ar
     4     3     4   1
     5     3     5  ar
     6     5     6  ar
     7     6     7  ar
     8     7     8   1
     9     8     9   2
    10     8    10   2
    11     8    11   1
    12    11    12   1
    13    12    13   1
    14    12    14   1
    15    12    15   1
    16    15    16   2
    17    15    17  am
    18    17    18   1
    19    18    19  ar
    20    18    20  ar
    21    19    25  ar
    22    20    21  ar
    23    21    22  ar
    24    22    23   1
    25    22    25  ar
    26    23    24   3
    27    25    26   1
    28    26    27   1
    29    26    28   1
    30    26    29   1
    31     1    30   1
    32     2    31   1
    33     5    32   1
    34     6    33   1
    35    11    34   1
    36    11    35   1
    37    13    36   1
    38    14    37   1
    39    14    38   1
    40    14    39   1
    41    17    40   1
    42    19    41   1
    43    20    42   1
    44    21    43   1
@<TRIPOS>SUBSTRUCTURE
     1  MOL      1

