@<TRIPOS>MOLECULE
1z95_ligand_017
    43    44
SMALL
GAST_HUCK
****
This file was generated by PARSER (from files_GN.cpp)

@<TRIPOS>ATOM
      1 C16        26.1365    4.6474    4.7826 C.ar        1 MOL      -0.0388
      2 C17        26.6129    5.9397    5.0777 C.ar        1 MOL      -0.0264
      3 C18        27.8763    6.3461    4.6083 C.ar        1 MOL       0.1325
      4 F18        28.3167    7.5457    4.8675 F           1 MOL      -0.1834
      5 C19        28.6645    5.4573    3.8473 C.ar        1 MOL      -0.0264
      6 C20        28.1876    4.1639    3.5570 C.ar        1 MOL      -0.0388
      7 C15        26.9147    3.7565    4.0123 C.ar        1 MOL       0.0840
      8 S14        26.2629    2.2108    3.5423 S.o2        1 MOL      -0.0030
      9 O14        24.7711    1.9987    4.0461 O.2         1 MOL      -0.1699
     10 O15        26.1133    2.2509    1.9575 O.2         1 MOL      -0.1699
     11 C13        27.3022    0.7825    3.9145 C.3         1 MOL       0.1063
     12 C11        27.0525    0.0756    5.2932 C.3         1 MOL       0.1678
     13 O11        25.8020    0.4959    5.8400 O.3         1 MOL      -0.3823
     14 C12        26.8781   -1.4632    5.0905 C.3         1 MOL      -0.0271
     15 C10        28.1499    0.3049    6.2496 C.2         1 MOL       0.2588
     16 O10        29.1915   -0.3253    6.0928 O.2         1 MOL      -0.3300
     17 N9         27.9992    1.1197    7.2910 N.am        1 MOL      -0.2188
     18 C1         28.7443    1.3123    8.4294 C.ar        1 MOL       0.1074
     19 C2         30.0708    0.8676    8.6618 C.ar        1 MOL       0.0010
     20 C6         28.0666    1.9279    9.5007 C.ar        1 MOL      -0.0005
     21 C5         28.6814    2.1135   10.7468 C.ar        1 MOL      -0.0119
     22 C4         30.0009    1.6585   10.9656 C.ar        1 MOL       0.1068
     23 C8         30.4974    1.8264   12.1616 C.1         1 MOL       0.1050
     24 N8         30.9389    1.9727   13.2105 N.1         1 MOL      -0.3259
     25 C3         30.7219    1.0238    9.9132 C.ar        1 MOL       0.0666
     26 C7         32.1039    0.4804   10.1192 C.3         1 MOL       0.3787
     27 F7B        32.9609    1.4568   10.5575 F           1 MOL      -0.2186
     28 F7C        32.0694   -0.5065   11.0718 F           1 MOL      -0.2186
     29 F7A        32.6926   -0.0564    8.9987 F           1 MOL      -0.2186
     30 H1         25.2146    4.3740    5.1219 H           1 MOL       0.0626
     31 H2         26.0363    6.5772    5.6290 H           1 MOL       0.0604
     32 H3         29.5765    5.7568    3.4958 H           1 MOL       0.0604
     33 H4         28.7624    3.5390    2.9950 H           1 MOL       0.0626
     34 H5         28.3471    1.1151    3.8432 H           1 MOL       0.0518
     35 H6         27.1543    0.0783    3.0839 H           1 MOL       0.0518
     36 H7         25.2290   -0.3017    5.8723 H           1 MOL       0.2079
     37 H8         26.6401   -1.9614    6.0370 H           1 MOL       0.0244
     38 H9         27.7836   -1.9190    4.6722 H           1 MOL       0.0244
     39 H10        26.0541   -1.6585    4.4067 H           1 MOL       0.0244
     40 H11        27.1849    1.6438    7.2681 H           1 MOL       0.2319
     41 H12        30.5516    0.3758    7.9152 H           1 MOL       0.0781
     42 H13        27.0973    2.2306    9.3907 H           1 MOL       0.0767
     43 H14        28.1406    2.5635   11.4992 H           1 MOL       0.0766
@<TRIPOS>BOND
     1     1     2  ar
     2     1     7  ar
     3     2     3  ar
     4     3     4   1
     5     3     5  ar
     6     5     6  ar
     7     6     7  ar
     8     7     8   1
     9     8     9   2
    10     8    10   2
    11     8    11   1
    12    11    12   1
    13    12    13   1
    14    12    14   1
    15    12    15   1
    16    15    16   2
    17    15    17  am
    18    17    18   1
    19    18    19  ar
    20    18    20  ar
    21    19    25  ar
    22    20    21  ar
    23    21    22  ar
    24    22    23   1
    25    22    25  ar
    26    23    24   3
    27    25    26   1
    28    26    27   1
    29    26    28   1
    30    26    29   1
    31     1    30   1
    32     2    31   1
    33     5    32   1
    34     6    33   1
    35    11    34   1
    36    11    35   1
    37    13    36   1
    38    14    37   1
    39    14    38   1
    40    14    39   1
    41    17    40   1
    42    19    41   1
    43    20    42   1
    44    21    43   1
@<TRIPOS>SUBSTRUCTURE
     1  MOL      1

