@<TRIPOS>MOLECULE
1z95_ligand_015
    43    44
SMALL
GAST_HUCK
****
This file was generated by PARSER (from files_GN.cpp)

@<TRIPOS>ATOM
      1 C16        26.8182    3.5255    5.9011 C.ar        1 MOL      -0.0388
      2 C17        26.9957    2.1979    6.3492 C.ar        1 MOL      -0.0264
      3 C18        28.2730    1.6239    6.3454 C.ar        1 MOL       0.1325
      4 F18        28.4393    0.3915    6.7503 F           1 MOL      -0.1834
      5 C19        29.3761    2.3718    5.8945 C.ar        1 MOL      -0.0264
      6 C20        29.1916    3.6903    5.4250 C.ar        1 MOL      -0.0388
      7 C15        27.9088    4.2682    5.4088 C.ar        1 MOL       0.0840
      8 S14        27.7046    5.8805    4.7663 S.o2        1 MOL      -0.0030
      9 O14        28.7718    6.7826    5.5572 O.2         1 MOL      -0.1699
     10 O15        28.1786    5.9453    3.2574 O.2         1 MOL      -0.1699
     11 C13        26.0782    6.6383    5.0176 C.3         1 MOL       0.1063
     12 C11        24.8568    6.1960    4.1383 C.3         1 MOL       0.1678
     13 O11        23.6880    6.6546    4.8387 O.3         1 MOL      -0.3823
     14 C12        24.8027    6.9807    2.8003 C.3         1 MOL      -0.0271
     15 C10        24.7553    4.7406    3.9213 C.2         1 MOL       0.2588
     16 O10        23.8778    4.1317    4.5239 O.2         1 MOL      -0.3300
     17 N9         25.7097    4.0763    3.2710 N.am        1 MOL      -0.2188
     18 C1         25.9474    2.7180    3.2235 C.ar        1 MOL       0.1074
     19 C2         27.2890    2.2909    3.1576 C.ar        1 MOL       0.0010
     20 C6         24.9360    1.7375    3.3026 C.ar        1 MOL      -0.0005
     21 C5         25.2694    0.3820    3.4245 C.ar        1 MOL      -0.0119
     22 C4         26.6222   -0.0300    3.4505 C.ar        1 MOL       0.1068
     23 C8         26.8556   -1.2953    3.6257 C.1         1 MOL       0.1050
     24 N8         27.0645   -2.4245    3.7886 N.1         1 MOL      -0.3259
     25 C3         27.6669    0.9236    3.2994 C.ar        1 MOL       0.0666
     26 C7         29.1126    0.5249    3.2748 C.3         1 MOL       0.3787
     27 F7B        29.4515   -0.1906    4.3940 F           1 MOL      -0.2186
     28 F7C        29.3554   -0.2583    2.1751 F           1 MOL      -0.2186
     29 F7A        30.0039    1.5662    3.2283 F           1 MOL      -0.2186
     30 H1         25.8796    3.9070    5.9330 H           1 MOL       0.0626
     31 H2         26.1862    1.6758    6.6795 H           1 MOL       0.0604
     32 H3         30.3073    1.9574    5.8781 H           1 MOL       0.0604
     33 H4         30.0010    4.2091    5.0887 H           1 MOL       0.0626
     34 H5         26.2146    7.7040    4.8857 H           1 MOL       0.0518
     35 H6         25.8231    6.4923    6.0699 H           1 MOL       0.0518
     36 H7         23.6081    6.1018    5.6430 H           1 MOL       0.2079
     37 H8         23.8821    6.7481    2.2678 H           1 MOL       0.0244
     38 H9         25.6517    6.7461    2.1612 H           1 MOL       0.0244
     39 H10        24.8080    8.0582    2.9843 H           1 MOL       0.0244
     40 H11        26.4362    4.6160    2.9167 H           1 MOL       0.2319
     41 H12        28.0191    3.0038    3.0684 H           1 MOL       0.0781
     42 H13        23.9483    1.9999    3.2789 H           1 MOL       0.0767
     43 H14        24.5060   -0.2999    3.5129 H           1 MOL       0.0766
@<TRIPOS>BOND
     1     1     2  ar
     2     1     7  ar
     3     2     3  ar
     4     3     4   1
     5     3     5  ar
     6     5     6  ar
     7     6     7  ar
     8     7     8   1
     9     8     9   2
    10     8    10   2
    11     8    11   1
    12    11    12   1
    13    12    13   1
    14    12    14   1
    15    12    15   1
    16    15    16   2
    17    15    17  am
    18    17    18   1
    19    18    19  ar
    20    18    20  ar
    21    19    25  ar
    22    20    21  ar
    23    21    22  ar
    24    22    23   1
    25    22    25  ar
    26    23    24   3
    27    25    26   1
    28    26    27   1
    29    26    28   1
    30    26    29   1
    31     1    30   1
    32     2    31   1
    33     5    32   1
    34     6    33   1
    35    11    34   1
    36    11    35   1
    37    13    36   1
    38    14    37   1
    39    14    38   1
    40    14    39   1
    41    17    40   1
    42    19    41   1
    43    20    42   1
    44    21    43   1
@<TRIPOS>SUBSTRUCTURE
     1  MOL      1

