@<TRIPOS>MOLECULE
1z95_ligand_022
    43    44
SMALL
GAST_HUCK
****
This file was generated by PARSER (from files_GN.cpp)

@<TRIPOS>ATOM
      1 C16        22.9772    4.5161    4.8567 C.ar        1 MOL      -0.0388
      2 C17        22.6087    3.3422    5.5352 C.ar        1 MOL      -0.0264
      3 C18        23.4687    2.7912    6.5032 C.ar        1 MOL       0.1325
      4 F18        23.1506    1.6901    7.1205 F           1 MOL      -0.1834
      5 C19        24.6743    3.4373    6.8192 C.ar        1 MOL      -0.0264
      6 C20        25.0315    4.6186    6.1590 C.ar        1 MOL      -0.0388
      7 C15        24.1989    5.1557    5.1597 C.ar        1 MOL       0.0840
      8 S14        24.6990    6.5819    4.2936 S.o2        1 MOL      -0.0030
      9 O14        23.7660    6.7949    3.0220 O.2         1 MOL      -0.1699
     10 O15        24.4526    7.8620    5.2047 O.2         1 MOL      -0.1699
     11 C13        26.4252    6.5531    3.7282 C.3         1 MOL       0.1063
     12 C11        27.1024    5.1328    3.5297 C.3         1 MOL       0.1678
     13 O11        26.1036    4.1618    3.1864 O.3         1 MOL      -0.3823
     14 C12        28.0981    5.1704    2.3349 C.3         1 MOL      -0.0271
     15 C10        27.8326    4.6007    4.6879 C.2         1 MOL       0.2588
     16 O10        28.2634    5.3632    5.5481 O.2         1 MOL      -0.3300
     17 N9         28.2292    3.3352    4.6663 N.am        1 MOL      -0.2188
     18 C1         28.9938    2.6013    5.5266 C.ar        1 MOL       0.1074
     19 C2         28.6867    2.3441    6.8850 C.ar        1 MOL       0.0010
     20 C6         30.1383    2.0071    4.9703 C.ar        1 MOL      -0.0005
     21 C5         30.9868    1.2096    5.7508 C.ar        1 MOL      -0.0119
     22 C4         30.7040    0.9970    7.1159 C.ar        1 MOL       0.1068
     23 C8         31.5705    0.2819    7.7842 C.1         1 MOL       0.1050
     24 N8         32.3469   -0.3312    8.3605 N.1         1 MOL      -0.3259
     25 C3         29.5305    1.5489    7.7046 C.ar        1 MOL       0.0666
     26 C7         29.1743    1.2881    9.1376 C.3         1 MOL       0.3787
     27 F7B        28.9917   -0.0602    9.3356 F           1 MOL      -0.2186
     28 F7C        30.1817    1.7204    9.9674 F           1 MOL      -0.2186
     29 F7A        28.0263    1.8980    9.5860 F           1 MOL      -0.2186
     30 H1         22.3504    4.8937    4.1417 H           1 MOL       0.0626
     31 H2         21.7156    2.8952    5.3244 H           1 MOL       0.0604
     32 H3         25.2949    3.0523    7.5304 H           1 MOL       0.0604
     33 H4         25.9013    5.0838    6.4093 H           1 MOL       0.0626
     34 H5         27.0007    7.1784    4.4097 H           1 MOL       0.0518
     35 H6         26.4085    7.0978    2.7874 H           1 MOL       0.0518
     36 H7         26.4300    3.7442    2.3634 H           1 MOL       0.2079
     37 H8         28.5376    4.1911    2.1448 H           1 MOL       0.0244
     38 H9         28.9047    5.8679    2.5515 H           1 MOL       0.0244
     39 H10        27.5761    5.4818    1.4296 H           1 MOL       0.0244
     40 H11        27.9912    2.8581    3.8554 H           1 MOL       0.2319
     41 H12        27.8225    2.7214    7.2724 H           1 MOL       0.0781
     42 H13        30.3773    2.1572    3.9883 H           1 MOL       0.0767
     43 H14        31.8074    0.7867    5.3007 H           1 MOL       0.0766
@<TRIPOS>BOND
     1     1     2  ar
     2     1     7  ar
     3     2     3  ar
     4     3     4   1
     5     3     5  ar
     6     5     6  ar
     7     6     7  ar
     8     7     8   1
     9     8     9   2
    10     8    10   2
    11     8    11   1
    12    11    12   1
    13    12    13   1
    14    12    14   1
    15    12    15   1
    16    15    16   2
    17    15    17  am
    18    17    18   1
    19    18    19  ar
    20    18    20  ar
    21    19    25  ar
    22    20    21  ar
    23    21    22  ar
    24    22    23   1
    25    22    25  ar
    26    23    24   3
    27    25    26   1
    28    26    27   1
    29    26    28   1
    30    26    29   1
    31     1    30   1
    32     2    31   1
    33     5    32   1
    34     6    33   1
    35    11    34   1
    36    11    35   1
    37    13    36   1
    38    14    37   1
    39    14    38   1
    40    14    39   1
    41    17    40   1
    42    19    41   1
    43    20    42   1
    44    21    43   1
@<TRIPOS>SUBSTRUCTURE
     1  MOL      1

