@<TRIPOS>MOLECULE
1z95_ligand_039
    43    44
SMALL
GAST_HUCK
****
This file was generated by PARSER (from files_GN.cpp)

@<TRIPOS>ATOM
      1 C16        29.9892   -0.9706    8.5387 C.ar        1 MOL      -0.0388
      2 C17        30.5058   -0.7229    7.2522 C.ar        1 MOL      -0.0264
      3 C18        31.8059   -0.2019    7.0936 C.ar        1 MOL       0.1325
      4 F18        32.2927   -0.0200    5.8923 F           1 MOL      -0.1834
      5 C19        32.5674    0.1158    8.2381 C.ar        1 MOL      -0.0264
      6 C20        32.0538   -0.1285    9.5220 C.ar        1 MOL      -0.0388
      7 C15        30.7680   -0.6848    9.6866 C.ar        1 MOL       0.0840
      8 S14        30.1947   -1.1520   11.2614 S.o2        1 MOL      -0.0030
      9 O14        29.7281   -2.6627   11.0701 O.2         1 MOL      -0.1699
     10 O15        31.3871   -1.2610   12.3130 O.2         1 MOL      -0.1699
     11 C13        28.7610   -0.3261   12.0022 C.3         1 MOL       0.1063
     12 C11        28.7908    1.2264   12.2242 C.3         1 MOL       0.1678
     13 O11        27.7450    1.4969   13.1739 O.3         1 MOL      -0.3823
     14 C12        30.1003    1.7344   12.8942 C.3         1 MOL      -0.0271
     15 C10        28.4994    1.9485   10.9747 C.2         1 MOL       0.2588
     16 O10        27.4863    2.6314   10.9022 O.2         1 MOL      -0.3300
     17 N9         29.3100    1.8491    9.9312 N.am        1 MOL      -0.2188
     18 C1         29.1077    2.1691    8.6077 C.ar        1 MOL       0.1074
     19 C2         30.2508    2.2599    7.7897 C.ar        1 MOL       0.0010
     20 C6         27.8400    2.2788    7.9924 C.ar        1 MOL      -0.0005
     21 C5         27.7176    2.5245    6.6205 C.ar        1 MOL      -0.0119
     22 C4         28.8693    2.6518    5.8152 C.ar        1 MOL       0.1068
     23 C8         28.6830    2.8568    4.5358 C.1         1 MOL       0.1050
     24 N8         28.5089    3.0283    3.4165 N.1         1 MOL      -0.3259
     25 C3         30.1697    2.5059    6.3965 C.ar        1 MOL       0.0666
     26 C7         31.4178    2.5469    5.5727 C.3         1 MOL       0.3787
     27 F7B        31.3960    1.5488    4.6375 F           1 MOL      -0.2186
     28 F7C        31.5237    3.7604    4.9338 F           1 MOL      -0.2186
     29 F7A        32.5956    2.3676    6.2565 F           1 MOL      -0.2186
     30 H1         29.0704   -1.3999    8.6329 H           1 MOL       0.0626
     31 H2         29.9475   -0.9566    6.4295 H           1 MOL       0.0604
     32 H3         33.5238    0.4632    8.1313 H           1 MOL       0.0604
     33 H4         32.6442    0.0643   10.3373 H           1 MOL       0.0626
     34 H5         28.6342   -0.8108   12.9732 H           1 MOL       0.0518
     35 H6         27.8826   -0.5908   11.4074 H           1 MOL       0.0518
     36 H7         28.1453    1.4449   14.0671 H           1 MOL       0.2079
     37 H8         30.0075    2.7881   13.1658 H           1 MOL       0.0244
     38 H9         30.9652    1.6300   12.2298 H           1 MOL       0.0244
     39 H10        30.2982    1.1689   13.8039 H           1 MOL       0.0244
     40 H11        30.1793    1.4639   10.1187 H           1 MOL       0.2319
     41 H12        31.1699    2.1090    8.2222 H           1 MOL       0.0781
     42 H13        26.9789    2.1534    8.5335 H           1 MOL       0.0767
     43 H14        26.7800    2.5900    6.2150 H           1 MOL       0.0766
@<TRIPOS>BOND
     1     1     2  ar
     2     1     7  ar
     3     2     3  ar
     4     3     4   1
     5     3     5  ar
     6     5     6  ar
     7     6     7  ar
     8     7     8   1
     9     8     9   2
    10     8    10   2
    11     8    11   1
    12    11    12   1
    13    12    13   1
    14    12    14   1
    15    12    15   1
    16    15    16   2
    17    15    17  am
    18    17    18   1
    19    18    19  ar
    20    18    20  ar
    21    19    25  ar
    22    20    21  ar
    23    21    22  ar
    24    22    23   1
    25    22    25  ar
    26    23    24   3
    27    25    26   1
    28    26    27   1
    29    26    28   1
    30    26    29   1
    31     1    30   1
    32     2    31   1
    33     5    32   1
    34     6    33   1
    35    11    34   1
    36    11    35   1
    37    13    36   1
    38    14    37   1
    39    14    38   1
    40    14    39   1
    41    17    40   1
    42    19    41   1
    43    20    42   1
    44    21    43   1
@<TRIPOS>SUBSTRUCTURE
     1  MOL      1

