@<TRIPOS>MOLECULE
1z95_ligand_030
    43    44
SMALL
GAST_HUCK
****
This file was generated by PARSER (from files_GN.cpp)

@<TRIPOS>ATOM
      1 C16        29.7675   -1.2296    9.2625 C.ar        1 MOL      -0.0388
      2 C17        29.7110   -1.2080   10.6677 C.ar        1 MOL      -0.0264
      3 C18        30.7261   -0.5700   11.4036 C.ar        1 MOL       0.1325
      4 F18        30.6478   -0.5110   12.7052 F           1 MOL      -0.1834
      5 C19        31.8113    0.0233   10.7297 C.ar        1 MOL      -0.0264
      6 C20        31.8800   -0.0229    9.3265 C.ar        1 MOL      -0.0388
      7 C15        30.8469   -0.6324    8.5781 C.ar        1 MOL       0.0840
      8 S14        30.8765   -0.6007    6.8287 S.o2        1 MOL      -0.0030
      9 O14        31.8187   -1.7723    6.3148 O.2         1 MOL      -0.1699
     10 O15        29.4387   -0.8598    6.2049 O.2         1 MOL      -0.1699
     11 C13        31.5745    0.9185    6.1351 C.3         1 MOL       0.1063
     12 C11        30.7944    2.2371    6.4759 C.3         1 MOL       0.1678
     13 O11        30.5269    2.2694    7.8861 O.3         1 MOL      -0.3823
     14 C12        31.7195    3.4485    6.1910 C.3         1 MOL      -0.0271
     15 C10        29.5163    2.3860    5.7738 C.2         1 MOL       0.2588
     16 O10        29.1839    1.5948    4.9008 O.2         1 MOL      -0.3300
     17 N9         28.7252    3.4102    6.0876 N.am        1 MOL      -0.2188
     18 C1         27.4856    3.6806    5.5863 C.ar        1 MOL       0.1074
     19 C2         27.2392    4.9883    5.1264 C.ar        1 MOL       0.0010
     20 C6         26.4525    2.7271    5.5609 C.ar        1 MOL      -0.0005
     21 C5         25.1882    3.0763    5.0690 C.ar        1 MOL      -0.0119
     22 C4         24.9457    4.3779    4.5757 C.ar        1 MOL       0.1068
     23 C8         23.7420    4.6397    4.1285 C.1         1 MOL       0.1050
     24 N8         22.6862    4.8622    3.7421 N.1         1 MOL      -0.3259
     25 C3         25.9838    5.3557    4.5817 C.ar        1 MOL       0.0666
     26 C7         25.7907    6.7388    4.0329 C.3         1 MOL       0.3787
     27 F7B        25.4244    6.6809    2.7085 F           1 MOL      -0.2186
     28 F7C        24.8065    7.3941    4.7341 F           1 MOL      -0.2186
     29 F7A        26.9013    7.5513    4.0752 F           1 MOL      -0.2186
     30 H1         29.0162   -1.6972    8.7450 H           1 MOL       0.0626
     31 H2         28.9232   -1.6529   11.1546 H           1 MOL       0.0604
     32 H3         32.5555    0.4831   11.2593 H           1 MOL       0.0604
     33 H4         32.6781    0.4066    8.8612 H           1 MOL       0.0626
     34 H5         31.6439    0.8051    5.0533 H           1 MOL       0.0518
     35 H6         32.5965    0.9826    6.5188 H           1 MOL       0.0518
     36 H7         29.8156    1.6036    8.0379 H           1 MOL       0.2079
     37 H8         31.2489    4.3698    6.5263 H           1 MOL       0.0244
     38 H9         31.9327    3.5251    5.1298 H           1 MOL       0.0244
     39 H10        32.6679    3.3528    6.7312 H           1 MOL       0.0244
     40 H11        29.0954    4.0813    6.6859 H           1 MOL       0.2319
     41 H12        28.0075    5.6617    5.1649 H           1 MOL       0.0781
     42 H13        26.6131    1.7878    5.9255 H           1 MOL       0.0767
     43 H14        24.4499    2.3677    5.0814 H           1 MOL       0.0766
@<TRIPOS>BOND
     1     1     2  ar
     2     1     7  ar
     3     2     3  ar
     4     3     4   1
     5     3     5  ar
     6     5     6  ar
     7     6     7  ar
     8     7     8   1
     9     8     9   2
    10     8    10   2
    11     8    11   1
    12    11    12   1
    13    12    13   1
    14    12    14   1
    15    12    15   1
    16    15    16   2
    17    15    17  am
    18    17    18   1
    19    18    19  ar
    20    18    20  ar
    21    19    25  ar
    22    20    21  ar
    23    21    22  ar
    24    22    23   1
    25    22    25  ar
    26    23    24   3
    27    25    26   1
    28    26    27   1
    29    26    28   1
    30    26    29   1
    31     1    30   1
    32     2    31   1
    33     5    32   1
    34     6    33   1
    35    11    34   1
    36    11    35   1
    37    13    36   1
    38    14    37   1
    39    14    38   1
    40    14    39   1
    41    17    40   1
    42    19    41   1
    43    20    42   1
    44    21    43   1
@<TRIPOS>SUBSTRUCTURE
     1  MOL      1

