@<TRIPOS>MOLECULE
1z95_ligand_004
    43    44
SMALL
GAST_HUCK
****
This file was generated by PARSER (from files_GN.cpp)

@<TRIPOS>ATOM
      1 C16        27.1634    0.9337    2.9212 C.ar        1 MOL      -0.0388
      2 C17        25.8691    1.4827    3.0250 C.ar        1 MOL      -0.0264
      3 C18        24.9930    1.0391    4.0349 C.ar        1 MOL       0.1325
      4 F18        23.8290    1.6059    4.1914 F           1 MOL      -0.1834
      5 C19        25.3954   -0.0056    4.8931 C.ar        1 MOL      -0.0264
      6 C20        26.6644   -0.5833    4.7571 C.ar        1 MOL      -0.0388
      7 C15        27.5848   -0.0808    3.8089 C.ar        1 MOL       0.0840
      8 S14        29.2440   -0.6306    3.8306 S.o2        1 MOL      -0.0030
      9 O14        29.2675   -2.2055    3.6330 O.2         1 MOL      -0.1699
     10 O15        30.0149   -0.0439    2.5678 O.2         1 MOL      -0.1699
     11 C13        30.2384   -0.2045    5.2957 C.3         1 MOL       0.1063
     12 C11        29.5308    0.4794    6.5201 C.3         1 MOL       0.1678
     13 O11        28.4505   -0.3711    6.9221 O.3         1 MOL      -0.3823
     14 C12        30.5010    0.5444    7.7412 C.3         1 MOL      -0.0271
     15 C10        29.0371    1.8291    6.2009 C.2         1 MOL       0.2588
     16 O10        29.8565    2.6774    5.9009 O.2         1 MOL      -0.3300
     17 N9         27.7309    2.1075    6.2688 N.am        1 MOL      -0.2188
     18 C1         27.0228    3.2233    5.9095 C.ar        1 MOL       0.1074
     19 C2         27.4222    4.1631    4.9306 C.ar        1 MOL       0.0010
     20 C6         25.7557    3.3846    6.5023 C.ar        1 MOL      -0.0005
     21 C5         24.9383    4.4785    6.1849 C.ar        1 MOL      -0.0119
     22 C4         25.3724    5.4463    5.2539 C.ar        1 MOL       0.1068
     23 C8         24.5938    6.4799    5.0552 C.1         1 MOL       0.1050
     24 N8         23.9230    7.4028    4.8888 N.1         1 MOL      -0.3259
     25 C3         26.6222    5.2786    4.5857 C.ar        1 MOL       0.0666
     26 C7         27.0934    6.2415    3.5410 C.3         1 MOL       0.3787
     27 F7B        26.1774    6.3268    2.5179 F           1 MOL      -0.2186
     28 F7C        27.2533    7.4874    4.0976 F           1 MOL      -0.2186
     29 F7A        28.2937    5.9227    2.9475 F           1 MOL      -0.2186
     30 H1         27.8031    1.3145    2.2178 H           1 MOL       0.0626
     31 H2         25.5860    2.2373    2.3950 H           1 MOL       0.0604
     32 H3         24.7780   -0.3161    5.6503 H           1 MOL       0.0604
     33 H4         26.9330   -1.3451    5.3866 H           1 MOL       0.0626
     34 H5         31.0522    0.4368    4.9478 H           1 MOL       0.0518
     35 H6         30.6937   -1.1322    5.6454 H           1 MOL       0.0518
     36 H7         28.7712   -1.2918    6.8295 H           1 MOL       0.2079
     37 H8         29.9978    0.9676    8.6145 H           1 MOL       0.0244
     38 H9         31.3729    1.1598    7.5139 H           1 MOL       0.0244
     39 H10        30.8515   -0.4567    8.0101 H           1 MOL       0.0244
     40 H11        27.1837    1.3987    6.6395 H           1 MOL       0.2319
     41 H12        28.3015    4.0143    4.4477 H           1 MOL       0.0781
     42 H13        25.4167    2.7093    7.1909 H           1 MOL       0.0767
     43 H14        24.0305    4.5649    6.6545 H           1 MOL       0.0766
@<TRIPOS>BOND
     1     1     2  ar
     2     1     7  ar
     3     2     3  ar
     4     3     4   1
     5     3     5  ar
     6     5     6  ar
     7     6     7  ar
     8     7     8   1
     9     8     9   2
    10     8    10   2
    11     8    11   1
    12    11    12   1
    13    12    13   1
    14    12    14   1
    15    12    15   1
    16    15    16   2
    17    15    17  am
    18    17    18   1
    19    18    19  ar
    20    18    20  ar
    21    19    25  ar
    22    20    21  ar
    23    21    22  ar
    24    22    23   1
    25    22    25  ar
    26    23    24   3
    27    25    26   1
    28    26    27   1
    29    26    28   1
    30    26    29   1
    31     1    30   1
    32     2    31   1
    33     5    32   1
    34     6    33   1
    35    11    34   1
    36    11    35   1
    37    13    36   1
    38    14    37   1
    39    14    38   1
    40    14    39   1
    41    17    40   1
    42    19    41   1
    43    20    42   1
    44    21    43   1
@<TRIPOS>SUBSTRUCTURE
     1  MOL      1

