@<TRIPOS>MOLECULE
1z95_ligand_043
    43    44
SMALL
GAST_HUCK
****
This file was generated by PARSER (from files_GN.cpp)

@<TRIPOS>ATOM
      1 C16        25.1929    6.1158    5.3890 C.ar        1 MOL      -0.0388
      2 C17        23.8339    5.7575    5.3765 C.ar        1 MOL      -0.0264
      3 C18        23.4383    4.4732    5.7943 C.ar        1 MOL       0.1325
      4 F18        22.1792    4.1374    5.7562 F           1 MOL      -0.1834
      5 C19        24.4066    3.5446    6.2194 C.ar        1 MOL      -0.0264
      6 C20        25.7687    3.8903    6.1983 C.ar        1 MOL      -0.0388
      7 C15        26.1719    5.1681    5.7523 C.ar        1 MOL       0.0840
      8 S14        27.8600    5.5391    5.5430 S.o2        1 MOL      -0.0030
      9 O14        28.2495    6.8167    6.4070 O.2         1 MOL      -0.1699
     10 O15        28.7921    4.3466    6.0328 O.2         1 MOL      -0.1699
     11 C13        28.2970    5.9424    3.8336 C.3         1 MOL       0.1063
     12 C11        27.4771    5.2836    2.6725 C.3         1 MOL       0.1678
     13 O11        26.2224    5.9615    2.5575 O.3         1 MOL      -0.3823
     14 C12        28.1531    5.5765    1.3046 C.3         1 MOL      -0.0271
     15 C10        27.2795    3.8363    2.8491 C.2         1 MOL       0.2588
     16 O10        26.1713    3.3598    2.6329 O.2         1 MOL      -0.3300
     17 N9         28.3047    3.0661    3.2010 N.am        1 MOL      -0.2188
     18 C1         28.3398    1.7309    3.5012 C.ar        1 MOL       0.1074
     19 C2         27.2686    0.9820    4.0411 C.ar        1 MOL       0.0010
     20 C6         29.5712    1.0827    3.3034 C.ar        1 MOL      -0.0005
     21 C5         29.7133   -0.2885    3.5591 C.ar        1 MOL      -0.0119
     22 C4         28.6292   -1.0382    4.0574 C.ar        1 MOL       0.1068
     23 C8         28.8312   -2.3179    4.2361 C.1         1 MOL       0.1050
     24 N8         29.0177   -3.4377    4.3822 N.1         1 MOL      -0.3259
     25 C3         27.3851   -0.4015    4.3391 C.ar        1 MOL       0.0666
     26 C7         26.2291   -1.1427    4.9429 C.3         1 MOL       0.3787
     27 F7B        25.8468   -2.1759    4.1247 F           1 MOL      -0.2186
     28 F7C        26.5883   -1.6677    6.1598 F           1 MOL      -0.2186
     29 F7A        25.1026   -0.3903    5.1778 F           1 MOL      -0.2186
     30 H1         25.4714    7.0440    5.0535 H           1 MOL       0.0626
     31 H2         23.1409    6.4303    5.0460 H           1 MOL       0.0604
     32 H3         24.1228    2.6081    6.5158 H           1 MOL       0.0604
     33 H4         26.4593    3.1896    6.4752 H           1 MOL       0.0626
     34 H5         29.3555    5.6807    3.7263 H           1 MOL       0.0518
     35 H6         28.2235    7.0223    3.7446 H           1 MOL       0.0518
     36 H7         25.5838    5.4517    3.1010 H           1 MOL       0.2079
     37 H8         27.5241    5.2274    0.4824 H           1 MOL       0.0244
     38 H9         29.1323    5.0983    1.2309 H           1 MOL       0.0244
     39 H10        28.2928    6.6452    1.1666 H           1 MOL       0.0244
     40 H11        29.1656    3.5155    3.2335 H           1 MOL       0.2319
     41 H12        26.3955    1.4593    4.2519 H           1 MOL       0.0781
     42 H13        30.3779    1.5969    2.9511 H           1 MOL       0.0767
     43 H14        30.6216   -0.7282    3.3726 H           1 MOL       0.0766
@<TRIPOS>BOND
     1     1     2  ar
     2     1     7  ar
     3     2     3  ar
     4     3     4   1
     5     3     5  ar
     6     5     6  ar
     7     6     7  ar
     8     7     8   1
     9     8     9   2
    10     8    10   2
    11     8    11   1
    12    11    12   1
    13    12    13   1
    14    12    14   1
    15    12    15   1
    16    15    16   2
    17    15    17  am
    18    17    18   1
    19    18    19  ar
    20    18    20  ar
    21    19    25  ar
    22    20    21  ar
    23    21    22  ar
    24    22    23   1
    25    22    25  ar
    26    23    24   3
    27    25    26   1
    28    26    27   1
    29    26    28   1
    30    26    29   1
    31     1    30   1
    32     2    31   1
    33     5    32   1
    34     6    33   1
    35    11    34   1
    36    11    35   1
    37    13    36   1
    38    14    37   1
    39    14    38   1
    40    14    39   1
    41    17    40   1
    42    19    41   1
    43    20    42   1
    44    21    43   1
@<TRIPOS>SUBSTRUCTURE
     1  MOL      1

