@<TRIPOS>MOLECULE
1z95_ligand_035
    43    44
SMALL
GAST_HUCK
****
This file was generated by PARSER (from files_GN.cpp)

@<TRIPOS>ATOM
      1 C16        25.7624    5.0504    3.4137 C.ar        1 MOL      -0.0388
      2 C17        26.8493    5.3677    2.5820 C.ar        1 MOL      -0.0264
      3 C18        28.1678    5.1024    3.0041 C.ar        1 MOL       0.1325
      4 F18        29.1744    5.4005    2.2297 F           1 MOL      -0.1834
      5 C19        28.3945    4.5342    4.2733 C.ar        1 MOL      -0.0264
      6 C20        27.3091    4.2165    5.1092 C.ar        1 MOL      -0.0388
      7 C15        25.9821    4.4604    4.6742 C.ar        1 MOL       0.0840
      8 S14        24.6184    4.1152    5.7006 S.o2        1 MOL      -0.0030
      9 O14        25.0727    3.6264    7.1485 O.2         1 MOL      -0.1699
     10 O15        23.8652    5.5006    5.9598 O.2         1 MOL      -0.1699
     11 C13        23.3907    2.9517    5.0387 C.3         1 MOL       0.1063
     12 C11        23.8906    1.6010    4.3901 C.3         1 MOL       0.1678
     13 O11        22.7900    0.6750    4.4433 O.3         1 MOL      -0.3823
     14 C12        24.1223    1.7369    2.8516 C.3         1 MOL      -0.0271
     15 C10        25.0444    1.0026    5.0776 C.2         1 MOL       0.2588
     16 O10        24.8401    0.1148    5.9121 O.2         1 MOL      -0.3300
     17 N9         26.2856    1.2678    4.6916 N.am        1 MOL      -0.2188
     18 C1         27.4437    0.7170    5.1234 C.ar        1 MOL       0.1074
     19 C2         28.0480   -0.2568    4.3078 C.ar        1 MOL       0.0010
     20 C6         28.1381    1.2019    6.2534 C.ar        1 MOL      -0.0005
     21 C5         29.4091    0.6845    6.5652 C.ar        1 MOL      -0.0119
     22 C4         29.9961   -0.3247    5.7703 C.ar        1 MOL       0.1068
     23 C8         31.1807   -0.7456    6.1220 C.1         1 MOL       0.1050
     24 N8         32.2210   -1.1321    6.4221 N.1         1 MOL      -0.3259
     25 C3         29.2984   -0.8462    4.6338 C.ar        1 MOL       0.0666
     26 C7         29.8519   -1.9669    3.8030 C.3         1 MOL       0.3787
     27 F7B        31.0330   -1.5926    3.2113 F           1 MOL      -0.2186
     28 F7C        30.0797   -3.0684    4.5916 F           1 MOL      -0.2186
     29 F7A        29.0283   -2.3967    2.7888 F           1 MOL      -0.2186
     30 H1         24.8158    5.2689    3.0967 H           1 MOL       0.0626
     31 H2         26.6831    5.8080    1.6725 H           1 MOL       0.0604
     32 H3         29.3420    4.3584    4.6023 H           1 MOL       0.0604
     33 H4         27.4845    3.8009    6.0294 H           1 MOL       0.0626
     34 H5         22.7723    3.5093    4.3187 H           1 MOL       0.0518
     35 H6         22.7401    2.7152    5.8824 H           1 MOL       0.0518
     36 H7         22.0562    1.1677    4.8735 H           1 MOL       0.2079
     37 H8         24.4708    0.7815    2.4398 H           1 MOL       0.0244
     38 H9         24.8725    2.5042    2.6376 H           1 MOL       0.0244
     39 H10        23.1935    2.0052    2.3382 H           1 MOL       0.0244
     40 H11        26.3710    1.8641    3.9279 H           1 MOL       0.2319
     41 H12        27.5414   -0.5749    3.4714 H           1 MOL       0.0781
     42 H13        27.7351    1.9559    6.8211 H           1 MOL       0.0767
     43 H14        29.9015    1.0877    7.3772 H           1 MOL       0.0766
@<TRIPOS>BOND
     1     1     2  ar
     2     1     7  ar
     3     2     3  ar
     4     3     4   1
     5     3     5  ar
     6     5     6  ar
     7     6     7  ar
     8     7     8   1
     9     8     9   2
    10     8    10   2
    11     8    11   1
    12    11    12   1
    13    12    13   1
    14    12    14   1
    15    12    15   1
    16    15    16   2
    17    15    17  am
    18    17    18   1
    19    18    19  ar
    20    18    20  ar
    21    19    25  ar
    22    20    21  ar
    23    21    22  ar
    24    22    23   1
    25    22    25  ar
    26    23    24   3
    27    25    26   1
    28    26    27   1
    29    26    28   1
    30    26    29   1
    31     1    30   1
    32     2    31   1
    33     5    32   1
    34     6    33   1
    35    11    34   1
    36    11    35   1
    37    13    36   1
    38    14    37   1
    39    14    38   1
    40    14    39   1
    41    17    40   1
    42    19    41   1
    43    20    42   1
    44    21    43   1
@<TRIPOS>SUBSTRUCTURE
     1  MOL      1

