@<TRIPOS>MOLECULE
1z95_ligand_034
    43    44
SMALL
GAST_HUCK
****
This file was generated by PARSER (from files_GN.cpp)

@<TRIPOS>ATOM
      1 C16        29.1602    3.7096    5.8771 C.ar        1 MOL      -0.0388
      2 C17        29.7832    2.4817    6.1685 C.ar        1 MOL      -0.0264
      3 C18        29.8467    1.4724    5.1894 C.ar        1 MOL       0.1325
      4 F18        30.4348    0.3349    5.4561 F           1 MOL      -0.1834
      5 C19        29.2812    1.6929    3.9177 C.ar        1 MOL      -0.0264
      6 C20        28.6590    2.9196    3.6261 C.ar        1 MOL      -0.0388
      7 C15        28.6021    3.9439    4.5985 C.ar        1 MOL       0.0840
      8 S14        27.8859    5.4937    4.2232 S.o2        1 MOL      -0.0030
      9 O14        28.9528    6.5923    4.6570 O.2         1 MOL      -0.1699
     10 O15        27.6985    5.6656    2.6504 O.2         1 MOL      -0.1699
     11 C13        26.3918    5.8270    5.2041 C.3         1 MOL       0.1063
     12 C11        24.9959    5.9802    4.5024 C.3         1 MOL       0.1678
     13 O11        24.1407    6.4395    5.5582 O.3         1 MOL      -0.3823
     14 C12        24.9701    7.1014    3.4197 C.3         1 MOL      -0.0271
     15 C10        24.4276    4.7300    3.9914 C.2         1 MOL       0.2588
     16 O10        23.2361    4.7159    3.6847 O.2         1 MOL      -0.3300
     17 N9         25.1808    3.6637    3.7202 N.am        1 MOL      -0.2188
     18 C1         24.7482    2.4946    3.1872 C.ar        1 MOL       0.1074
     19 C2         25.0778    2.1909    1.8525 C.ar        1 MOL       0.0010
     20 C6         23.9082    1.6261    3.9052 C.ar        1 MOL      -0.0005
     21 C5         23.4047    0.4728    3.2910 C.ar        1 MOL      -0.0119
     22 C4         23.6776    0.2006    1.9334 C.ar        1 MOL       0.1068
     23 C8         23.1064   -0.8555    1.4208 C.1         1 MOL       0.1050
     24 N8         22.5950   -1.7874    0.9825 N.1         1 MOL      -0.3259
     25 C3         24.5042    1.0839    1.1762 C.ar        1 MOL       0.0666
     26 C7         24.7370    0.9062   -0.2970 C.3         1 MOL       0.3787
     27 F7B        25.4376   -0.2463   -0.5355 F           1 MOL      -0.2186
     28 F7C        23.5429    0.8352   -0.9738 F           1 MOL      -0.2186
     29 F7A        25.4357    1.9216   -0.9113 F           1 MOL      -0.2186
     30 H1         29.1286    4.4345    6.5968 H           1 MOL       0.0626
     31 H2         30.1922    2.3269    7.0927 H           1 MOL       0.0604
     32 H3         29.3231    0.9624    3.2028 H           1 MOL       0.0604
     33 H4         28.2596    3.0609    2.6986 H           1 MOL       0.0626
     34 H5         26.5935    6.7546    5.7445 H           1 MOL       0.0518
     35 H6         26.3150    5.0325    5.9515 H           1 MOL       0.0518
     36 H7         23.2308    6.4621    5.1858 H           1 MOL       0.2079
     37 H8         23.9379    7.3474    3.1474 H           1 MOL       0.0244
     38 H9         25.4933    6.7945    2.5109 H           1 MOL       0.0244
     39 H10        25.4426    8.0063    3.8108 H           1 MOL       0.0244
     40 H11        26.1347    3.7620    3.8029 H           1 MOL       0.2319
     41 H12        25.6867    2.8398    1.3489 H           1 MOL       0.0781
     42 H13        23.6636    1.8347    4.8731 H           1 MOL       0.0767
     43 H14        22.7979   -0.1422    3.8458 H           1 MOL       0.0766
@<TRIPOS>BOND
     1     1     2  ar
     2     1     7  ar
     3     2     3  ar
     4     3     4   1
     5     3     5  ar
     6     5     6  ar
     7     6     7  ar
     8     7     8   1
     9     8     9   2
    10     8    10   2
    11     8    11   1
    12    11    12   1
    13    12    13   1
    14    12    14   1
    15    12    15   1
    16    15    16   2
    17    15    17  am
    18    17    18   1
    19    18    19  ar
    20    18    20  ar
    21    19    25  ar
    22    20    21  ar
    23    21    22  ar
    24    22    23   1
    25    22    25  ar
    26    23    24   3
    27    25    26   1
    28    26    27   1
    29    26    28   1
    30    26    29   1
    31     1    30   1
    32     2    31   1
    33     5    32   1
    34     6    33   1
    35    11    34   1
    36    11    35   1
    37    13    36   1
    38    14    37   1
    39    14    38   1
    40    14    39   1
    41    17    40   1
    42    19    41   1
    43    20    42   1
    44    21    43   1
@<TRIPOS>SUBSTRUCTURE
     1  MOL      1

