@<TRIPOS>MOLECULE
1z95_ligand_028
    43    44
SMALL
GAST_HUCK
****
This file was generated by PARSER (from files_GN.cpp)

@<TRIPOS>ATOM
      1 C16        24.1085    2.1171    2.9740 C.ar        1 MOL      -0.0388
      2 C17        24.7622    0.9816    2.4589 C.ar        1 MOL      -0.0264
      3 C18        26.1620    0.9858    2.3040 C.ar        1 MOL       0.1325
      4 F18        26.7806   -0.0766    1.8716 F           1 MOL      -0.1834
      5 C19        26.9017    2.1336    2.6366 C.ar        1 MOL      -0.0264
      6 C20        26.2474    3.2774    3.1307 C.ar        1 MOL      -0.0388
      7 C15        24.8498    3.2664    3.3239 C.ar        1 MOL       0.0840
      8 S14        24.0564    4.6356    4.0560 S.o2        1 MOL      -0.0030
      9 O14        24.7010    5.9866    3.5080 O.2         1 MOL      -0.1699
     10 O15        22.5237    4.6763    3.6047 O.2         1 MOL      -0.1699
     11 C13        24.0734    4.6726    5.8666 C.3         1 MOL       0.1063
     12 C11        24.9131    3.5661    6.5992 C.3         1 MOL       0.1678
     13 O11        24.7922    3.8698    7.9927 O.3         1 MOL      -0.3823
     14 C12        24.2648    2.1504    6.3786 C.3         1 MOL      -0.0271
     15 C10        26.3499    3.6108    6.2969 C.2         1 MOL       0.2588
     16 O10        26.8311    4.6584    5.8771 O.2         1 MOL      -0.3300
     17 N9         27.1573    2.6110    6.6534 N.am        1 MOL      -0.2188
     18 C1         28.5190    2.4517    6.5514 C.ar        1 MOL       0.1074
     19 C2         29.0642    1.3338    7.2153 C.ar        1 MOL       0.0010
     20 C6         29.4005    3.2825    5.8201 C.ar        1 MOL      -0.0005
     21 C5         30.7800    3.0107    5.7778 C.ar        1 MOL      -0.0119
     22 C4         31.3131    1.8935    6.4505 C.ar        1 MOL       0.1068
     23 C8         32.5996    1.6850    6.3439 C.1         1 MOL       0.1050
     24 N8         33.7285    1.5058    6.2364 N.1         1 MOL      -0.3259
     25 C3         30.4526    1.0303    7.1931 C.ar        1 MOL       0.0666
     26 C7         30.9775   -0.1679    7.9329 C.3         1 MOL       0.3787
     27 F7B        31.6003   -1.0186    7.0559 F           1 MOL      -0.2186
     28 F7C        31.8852    0.2294    8.8847 F           1 MOL      -0.2186
     29 F7A        30.0289   -0.9149    8.5939 F           1 MOL      -0.2186
     30 H1         23.0974    2.0861    3.1157 H           1 MOL       0.0626
     31 H2         24.2152    0.1511    2.2197 H           1 MOL       0.0604
     32 H3         27.9199    2.1361    2.5311 H           1 MOL       0.0604
     33 H4         26.8044    4.0966    3.3674 H           1 MOL       0.0626
     34 H5         23.0381    4.6303    6.2134 H           1 MOL       0.0518
     35 H6         24.4494    5.6581    6.1544 H           1 MOL       0.0518
     36 H7         24.9790    3.0328    8.4708 H           1 MOL       0.2079
     37 H8         24.4697    1.4983    7.2297 H           1 MOL       0.0244
     38 H9         24.6687    1.6587    5.4935 H           1 MOL       0.0244
     39 H10        23.1782    2.2093    6.2780 H           1 MOL       0.0244
     40 H11        26.7106    1.8793    7.1019 H           1 MOL       0.2319
     41 H12        28.4262    0.7293    7.7334 H           1 MOL       0.0781
     42 H13        29.0584    4.0869    5.2874 H           1 MOL       0.0767
     43 H14        31.3873    3.6358    5.2470 H           1 MOL       0.0766
@<TRIPOS>BOND
     1     1     2  ar
     2     1     7  ar
     3     2     3  ar
     4     3     4   1
     5     3     5  ar
     6     5     6  ar
     7     6     7  ar
     8     7     8   1
     9     8     9   2
    10     8    10   2
    11     8    11   1
    12    11    12   1
    13    12    13   1
    14    12    14   1
    15    12    15   1
    16    15    16   2
    17    15    17  am
    18    17    18   1
    19    18    19  ar
    20    18    20  ar
    21    19    25  ar
    22    20    21  ar
    23    21    22  ar
    24    22    23   1
    25    22    25  ar
    26    23    24   3
    27    25    26   1
    28    26    27   1
    29    26    28   1
    30    26    29   1
    31     1    30   1
    32     2    31   1
    33     5    32   1
    34     6    33   1
    35    11    34   1
    36    11    35   1
    37    13    36   1
    38    14    37   1
    39    14    38   1
    40    14    39   1
    41    17    40   1
    42    19    41   1
    43    20    42   1
    44    21    43   1
@<TRIPOS>SUBSTRUCTURE
     1  MOL      1

