@<TRIPOS>MOLECULE
1z95_ligand_059
    43    44
SMALL
GAST_HUCK
****
This file was generated by PARSER (from files_GN.cpp)

@<TRIPOS>ATOM
      1 C16        26.6004    2.6647    2.9910 C.ar        1 MOL      -0.0388
      2 C17        26.1475    1.4065    3.4225 C.ar        1 MOL      -0.0264
      3 C18        26.6144    0.8691    4.6333 C.ar        1 MOL       0.1325
      4 F18        26.1873   -0.2916    5.0438 F           1 MOL      -0.1834
      5 C19        27.5568    1.5829    5.3967 C.ar        1 MOL      -0.0264
      6 C20        28.0290    2.8317    4.9527 C.ar        1 MOL      -0.0388
      7 C15        27.5489    3.3850    3.7466 C.ar        1 MOL       0.0840
      8 S14        28.1441    4.9177    3.1716 S.o2        1 MOL      -0.0030
      9 O14        29.1046    5.6427    4.2092 O.2         1 MOL      -0.1699
     10 O15        29.0625    4.6189    1.9099 O.2         1 MOL      -0.1699
     11 C13        26.8702    6.0507    2.5580 C.3         1 MOL       0.1063
     12 C11        26.0051    6.7291    3.6687 C.3         1 MOL       0.1678
     13 O11        26.8480    7.1991    4.7257 O.3         1 MOL      -0.3823
     14 C12        25.2994    8.0119    3.1449 C.3         1 MOL      -0.0271
     15 C10        25.0215    5.7812    4.1860 C.2         1 MOL       0.2588
     16 O10        24.0123    5.5702    3.5332 O.2         1 MOL      -0.3300
     17 N9         25.2856    5.1111    5.3046 N.am        1 MOL      -0.2188
     18 C1         24.5935    4.0659    5.8336 C.ar        1 MOL       0.1074
     19 C2         23.8770    3.1198    5.0723 C.ar        1 MOL       0.0010
     20 C6         24.6730    3.8832    7.2209 C.ar        1 MOL      -0.0005
     21 C5         23.9769    2.8387    7.8401 C.ar        1 MOL      -0.0119
     22 C4         23.2391    1.9106    7.0770 C.ar        1 MOL       0.1068
     23 C8         22.6047    0.9736    7.7348 C.1         1 MOL       0.1050
     24 N8         22.0504    0.1595    8.3250 N.1         1 MOL      -0.3259
     25 C3         23.2059    2.0229    5.6568 C.ar        1 MOL       0.0666
     26 C7         22.5221    1.0408    4.7662 C.3         1 MOL       0.3787
     27 F7B        23.1705   -0.1550    4.8554 F           1 MOL      -0.2186
     28 F7C        21.2125    0.8853    5.1407 F           1 MOL      -0.2186
     29 F7A        22.5211    1.3536    3.4279 F           1 MOL      -0.2186
     30 H1         26.2222    3.0408    2.1224 H           1 MOL       0.0626
     31 H2         25.4445    0.9097    2.8734 H           1 MOL       0.0604
     32 H3         27.9126    1.1886    6.2693 H           1 MOL       0.0604
     33 H4         28.7173    3.3326    5.5186 H           1 MOL       0.0626
     34 H5         26.2404    5.5221    1.8443 H           1 MOL       0.0518
     35 H6         27.3866    6.8126    1.9804 H           1 MOL       0.0518
     36 H7         27.5010    7.7932    4.3010 H           1 MOL       0.2079
     37 H8         24.7107    8.4668    3.9425 H           1 MOL       0.0244
     38 H9         24.6368    7.7892    2.3077 H           1 MOL       0.0244
     39 H10        26.0340    8.7471    2.8132 H           1 MOL       0.0244
     40 H11        26.0611    5.4047    5.8095 H           1 MOL       0.2319
     41 H12        23.9219    3.1947    4.0588 H           1 MOL       0.0781
     42 H13        25.2096    4.5247    7.8013 H           1 MOL       0.0767
     43 H14        24.0383    2.7503    8.8552 H           1 MOL       0.0766
@<TRIPOS>BOND
     1     1     2  ar
     2     1     7  ar
     3     2     3  ar
     4     3     4   1
     5     3     5  ar
     6     5     6  ar
     7     6     7  ar
     8     7     8   1
     9     8     9   2
    10     8    10   2
    11     8    11   1
    12    11    12   1
    13    12    13   1
    14    12    14   1
    15    12    15   1
    16    15    16   2
    17    15    17  am
    18    17    18   1
    19    18    19  ar
    20    18    20  ar
    21    19    25  ar
    22    20    21  ar
    23    21    22  ar
    24    22    23   1
    25    22    25  ar
    26    23    24   3
    27    25    26   1
    28    26    27   1
    29    26    28   1
    30    26    29   1
    31     1    30   1
    32     2    31   1
    33     5    32   1
    34     6    33   1
    35    11    34   1
    36    11    35   1
    37    13    36   1
    38    14    37   1
    39    14    38   1
    40    14    39   1
    41    17    40   1
    42    19    41   1
    43    20    42   1
    44    21    43   1
@<TRIPOS>SUBSTRUCTURE
     1  MOL      1

