@<TRIPOS>MOLECULE
1z95_ligand_008
    43    44
SMALL
GAST_HUCK
****
This file was generated by PARSER (from files_GN.cpp)

@<TRIPOS>ATOM
      1 C16        31.2102    1.2611   10.7871 C.ar        1 MOL      -0.0388
      2 C17        31.3895    1.7635   12.0884 C.ar        1 MOL      -0.0264
      3 C18        30.2812    1.9923   12.9217 C.ar        1 MOL       0.1325
      4 F18        30.4458    2.4849   14.1163 F           1 MOL      -0.1834
      5 C19        28.9900    1.6946   12.4568 C.ar        1 MOL      -0.0264
      6 C20        28.8063    1.2052   11.1479 C.ar        1 MOL      -0.0388
      7 C15        29.9106    1.0179   10.2853 C.ar        1 MOL       0.0840
      8 S14        29.6503    0.5415    8.6265 S.o2        1 MOL      -0.0030
      9 O14        29.4140   -1.0316    8.6003 O.2         1 MOL      -0.1699
     10 O15        28.3102    1.2411    8.1306 O.2         1 MOL      -0.1699
     11 C13        30.9607    1.0699    7.4776 C.3         1 MOL       0.1063
     12 C11        30.8166    0.6717    5.9674 C.3         1 MOL       0.1678
     13 O11        31.7981    1.4333    5.2666 O.3         1 MOL      -0.3823
     14 C12        31.2093   -0.8273    5.7213 C.3         1 MOL      -0.0271
     15 C10        29.5020    1.0275    5.4289 C.2         1 MOL       0.2588
     16 O10        28.6496    0.1484    5.3284 O.2         1 MOL      -0.3300
     17 N9         29.1933    2.2947    5.2091 N.am        1 MOL      -0.2188
     18 C1         28.0191    2.8843    4.7903 C.ar        1 MOL       0.1074
     19 C2         27.9256    4.2760    4.9654 C.ar        1 MOL       0.0010
     20 C6         26.9086    2.2057    4.2340 C.ar        1 MOL      -0.0005
     21 C5         25.7283    2.9053    3.9268 C.ar        1 MOL      -0.0119
     22 C4         25.6265    4.2880    4.1651 C.ar        1 MOL       0.1068
     23 C8         24.4626    4.8426    3.9214 C.1         1 MOL       0.1050
     24 N8         23.4430    5.3310    3.7120 N.1         1 MOL      -0.3259
     25 C3         26.7484    5.0070    4.6720 C.ar        1 MOL       0.0666
     26 C7         26.6994    6.4815    4.8967 C.3         1 MOL       0.3787
     27 F7B        26.4426    7.1418    3.7142 F           1 MOL      -0.2186
     28 F7C        25.6909    6.7915    5.7911 F           1 MOL      -0.2186
     29 F7A        27.8474    7.0554    5.4011 F           1 MOL      -0.2186
     30 H1         32.0363    1.0971   10.2067 H           1 MOL       0.0626
     31 H2         32.3310    1.9756   12.4182 H           1 MOL       0.0604
     32 H3         28.1756    1.8503   13.0531 H           1 MOL       0.0604
     33 H4         27.8544    1.0081   10.8234 H           1 MOL       0.0626
     34 H5         31.9133    0.6710    7.8550 H           1 MOL       0.0518
     35 H6         31.0140    2.1645    7.5445 H           1 MOL       0.0518
     36 H7         31.9118    1.0161    4.3688 H           1 MOL       0.2079
     37 H8         31.0950   -1.0948    4.6700 H           1 MOL       0.0244
     38 H9         30.5576   -1.5093    6.2846 H           1 MOL       0.0244
     39 H10        32.2414   -1.0363    6.0116 H           1 MOL       0.0244
     40 H11        29.9147    2.9249    5.4215 H           1 MOL       0.2319
     41 H12        28.7395    4.7671    5.3370 H           1 MOL       0.0781
     42 H13        26.9546    1.2075    4.0270 H           1 MOL       0.0767
     43 H14        24.9411    2.3742    3.5357 H           1 MOL       0.0766
@<TRIPOS>BOND
     1     1     2  ar
     2     1     7  ar
     3     2     3  ar
     4     3     4   1
     5     3     5  ar
     6     5     6  ar
     7     6     7  ar
     8     7     8   1
     9     8     9   2
    10     8    10   2
    11     8    11   1
    12    11    12   1
    13    12    13   1
    14    12    14   1
    15    12    15   1
    16    15    16   2
    17    15    17  am
    18    17    18   1
    19    18    19  ar
    20    18    20  ar
    21    19    25  ar
    22    20    21  ar
    23    21    22  ar
    24    22    23   1
    25    22    25  ar
    26    23    24   3
    27    25    26   1
    28    26    27   1
    29    26    28   1
    30    26    29   1
    31     1    30   1
    32     2    31   1
    33     5    32   1
    34     6    33   1
    35    11    34   1
    36    11    35   1
    37    13    36   1
    38    14    37   1
    39    14    38   1
    40    14    39   1
    41    17    40   1
    42    19    41   1
    43    20    42   1
    44    21    43   1
@<TRIPOS>SUBSTRUCTURE
     1  MOL      1

