@<TRIPOS>MOLECULE
1z95_ligand_051
    43    44
SMALL
GAST_HUCK
****
This file was generated by PARSER (from files_GN.cpp)

@<TRIPOS>ATOM
      1 C16        31.4308    2.1358   11.5758 C.ar        1 MOL      -0.0388
      2 C17        32.3441    3.1743   11.8530 C.ar        1 MOL      -0.0264
      3 C18        33.6965    2.8748   12.0667 C.ar        1 MOL       0.1325
      4 F18        34.5597    3.8328   12.2735 F           1 MOL      -0.1834
      5 C19        34.1253    1.5344   12.0151 C.ar        1 MOL      -0.0264
      6 C20        33.2010    0.5031   11.8029 C.ar        1 MOL      -0.0388
      7 C15        31.8333    0.7848   11.6097 C.ar        1 MOL       0.0840
      8 S14        30.7420   -0.5404   11.2795 S.o2        1 MOL      -0.0030
      9 O14        30.9702   -0.8790    9.7362 O.2         1 MOL      -0.1699
     10 O15        31.3240   -1.8767   11.9220 O.2         1 MOL      -0.1699
     11 C13        28.9690   -0.6084   11.6579 C.3         1 MOL       0.1063
     12 C11        28.1466    0.7252   11.6741 C.3         1 MOL       0.1678
     13 O11        26.7774    0.3571   11.7655 O.3         1 MOL      -0.3823
     14 C12        28.4495    1.5342   12.9850 C.3         1 MOL      -0.0271
     15 C10        28.1641    1.5171   10.4317 C.2         1 MOL       0.2588
     16 O10        27.6931    2.6464   10.4605 O.2         1 MOL      -0.3300
     17 N9         28.6353    1.0298    9.2871 N.am        1 MOL      -0.2188
     18 C1         28.6340    1.6089    8.0535 C.ar        1 MOL       0.1074
     19 C2         29.7699    1.4629    7.2355 C.ar        1 MOL       0.0010
     20 C6         27.5124    2.2872    7.5450 C.ar        1 MOL      -0.0005
     21 C5         27.5418    2.8650    6.2708 C.ar        1 MOL      -0.0119
     22 C4         28.7047    2.7738    5.4747 C.ar        1 MOL       0.1068
     23 C8         28.6654    3.3741    4.3161 C.1         1 MOL       0.1050
     24 N8         28.6213    3.9086    3.2998 N.1         1 MOL      -0.3259
     25 C3         29.8443    2.0627    5.9536 C.ar        1 MOL       0.0666
     26 C7         31.1209    1.9898    5.1755 C.3         1 MOL       0.3787
     27 F7B        30.8922    1.4912    3.9154 F           1 MOL      -0.2186
     28 F7C        31.6511    3.2538    5.0884 F           1 MOL      -0.2186
     29 F7A        32.1066    1.1997    5.7207 F           1 MOL      -0.2186
     30 H1         30.4773    2.3929   11.3360 H           1 MOL       0.0626
     31 H2         32.0272    4.1439   11.8575 H           1 MOL       0.0604
     32 H3         35.1101    1.3094   12.1449 H           1 MOL       0.0604
     33 H4         33.5393   -0.4585   11.7750 H           1 MOL       0.0626
     34 H5         28.8652   -1.1045   12.6298 H           1 MOL       0.0518
     35 H6         28.5263   -1.2917   10.9266 H           1 MOL       0.0518
     36 H7         26.7077   -0.2049   12.5605 H           1 MOL       0.2079
     37 H8         27.8325    2.4317   13.0309 H           1 MOL       0.0244
     38 H9         29.4899    1.8434   13.0662 H           1 MOL       0.0244
     39 H10        28.2231    0.9347   13.8682 H           1 MOL       0.0244
     40 H11        29.0842    0.1698    9.3367 H           1 MOL       0.2319
     41 H12        30.5713    0.9445    7.6055 H           1 MOL       0.0781
     42 H13        26.6565    2.3580    8.0948 H           1 MOL       0.0767
     43 H14        26.7045    3.3634    5.9449 H           1 MOL       0.0766
@<TRIPOS>BOND
     1     1     2  ar
     2     1     7  ar
     3     2     3  ar
     4     3     4   1
     5     3     5  ar
     6     5     6  ar
     7     6     7  ar
     8     7     8   1
     9     8     9   2
    10     8    10   2
    11     8    11   1
    12    11    12   1
    13    12    13   1
    14    12    14   1
    15    12    15   1
    16    15    16   2
    17    15    17  am
    18    17    18   1
    19    18    19  ar
    20    18    20  ar
    21    19    25  ar
    22    20    21  ar
    23    21    22  ar
    24    22    23   1
    25    22    25  ar
    26    23    24   3
    27    25    26   1
    28    26    27   1
    29    26    28   1
    30    26    29   1
    31     1    30   1
    32     2    31   1
    33     5    32   1
    34     6    33   1
    35    11    34   1
    36    11    35   1
    37    13    36   1
    38    14    37   1
    39    14    38   1
    40    14    39   1
    41    17    40   1
    42    19    41   1
    43    20    42   1
    44    21    43   1
@<TRIPOS>SUBSTRUCTURE
     1  MOL      1

