@<TRIPOS>MOLECULE
1z95_ligand_052
    43    44
SMALL
GAST_HUCK
****
This file was generated by PARSER (from files_GN.cpp)

@<TRIPOS>ATOM
      1 C16        28.2966    1.0638    9.3298 C.ar        1 MOL      -0.0388
      2 C17        28.4164    1.5055    7.9960 C.ar        1 MOL      -0.0264
      3 C18        29.1234    0.7242    7.0587 C.ar        1 MOL       0.1325
      4 F18        29.2240    1.1339    5.8173 F           1 MOL      -0.1834
      5 C19        29.7519   -0.4691    7.4643 C.ar        1 MOL      -0.0264
      6 C20        29.6511   -0.8961    8.8051 C.ar        1 MOL      -0.0388
      7 C15        28.9000   -0.1512    9.7479 C.ar        1 MOL       0.0840
      8 S14        28.6443   -0.7671   11.3628 S.o2        1 MOL      -0.0030
      9 O14        27.0822   -0.6571   11.6596 O.2         1 MOL      -0.1699
     10 O15        28.9736   -2.3240   11.4225 O.2         1 MOL      -0.1699
     11 C13        29.4808    0.0116   12.7704 C.3         1 MOL       0.1063
     12 C11        29.5823    1.5701   12.6687 C.3         1 MOL       0.1678
     13 O11        28.2479    2.0738   12.8320 O.3         1 MOL      -0.3823
     14 C12        30.4220    2.1751   13.8247 C.3         1 MOL      -0.0271
     15 C10        30.1677    1.9860   11.3883 C.2         1 MOL       0.2588
     16 O10        29.6053    2.8457   10.7244 O.2         1 MOL      -0.3300
     17 N9         31.2768    1.3857   10.9656 N.am        1 MOL      -0.2188
     18 C1         31.8466    1.3103    9.7327 C.ar        1 MOL       0.1074
     19 C2         31.3515    1.9027    8.5514 C.ar        1 MOL       0.0010
     20 C6         32.9855    0.4972    9.6332 C.ar        1 MOL      -0.0005
     21 C5         33.6635    0.3373    8.4194 C.ar        1 MOL      -0.0119
     22 C4         33.2140    1.0065    7.2641 C.ar        1 MOL       0.1068
     23 C8         33.9761    0.9306    6.2033 C.1         1 MOL       0.1050
     24 N8         34.6871    0.8649    5.3037 N.1         1 MOL      -0.3259
     25 C3         32.0166    1.7782    7.3081 C.ar        1 MOL       0.0666
     26 C7         31.4836    2.4873    6.0996 C.3         1 MOL       0.3787
     27 F7B        32.4033    3.4020    5.6550 F           1 MOL      -0.2186
     28 F7C        31.1957    1.5752    5.1095 F           1 MOL      -0.2186
     29 F7A        30.3413    3.2195    6.3003 F           1 MOL      -0.2186
     30 H1         27.7521    1.6225    9.9911 H           1 MOL       0.0626
     31 H2         27.9488    2.3503    7.6967 H           1 MOL       0.0604
     32 H3         30.2810   -1.0284    6.7921 H           1 MOL       0.0604
     33 H4         30.1086   -1.7594    9.0874 H           1 MOL       0.0626
     34 H5         30.4772   -0.4371   12.8677 H           1 MOL       0.0518
     35 H6         28.9270   -0.2665   13.6683 H           1 MOL       0.0518
     36 H7         28.0186    1.9117   13.7805 H           1 MOL       0.2079
     37 H8         30.3334    3.2637   13.8329 H           1 MOL       0.0244
     38 H9         31.4705    1.9181   13.7125 H           1 MOL       0.0244
     39 H10        30.0794    1.8009   14.7922 H           1 MOL       0.0244
     40 H11        31.7276    0.8605   11.6454 H           1 MOL       0.2319
     41 H12        30.4912    2.4406    8.5923 H           1 MOL       0.0781
     42 H13        33.3407    0.0204   10.4565 H           1 MOL       0.0767
     43 H14        34.4993   -0.2539    8.3945 H           1 MOL       0.0766
@<TRIPOS>BOND
     1     1     2  ar
     2     1     7  ar
     3     2     3  ar
     4     3     4   1
     5     3     5  ar
     6     5     6  ar
     7     6     7  ar
     8     7     8   1
     9     8     9   2
    10     8    10   2
    11     8    11   1
    12    11    12   1
    13    12    13   1
    14    12    14   1
    15    12    15   1
    16    15    16   2
    17    15    17  am
    18    17    18   1
    19    18    19  ar
    20    18    20  ar
    21    19    25  ar
    22    20    21  ar
    23    21    22  ar
    24    22    23   1
    25    22    25  ar
    26    23    24   3
    27    25    26   1
    28    26    27   1
    29    26    28   1
    30    26    29   1
    31     1    30   1
    32     2    31   1
    33     5    32   1
    34     6    33   1
    35    11    34   1
    36    11    35   1
    37    13    36   1
    38    14    37   1
    39    14    38   1
    40    14    39   1
    41    17    40   1
    42    19    41   1
    43    20    42   1
    44    21    43   1
@<TRIPOS>SUBSTRUCTURE
     1  MOL      1

