@<TRIPOS>MOLECULE
1z95_ligand_021
    43    44
SMALL
GAST_HUCK
****
This file was generated by PARSER (from files_GN.cpp)

@<TRIPOS>ATOM
      1 C16        27.3895    5.6790    4.6286 C.ar        1 MOL      -0.0388
      2 C17        28.4801    5.3672    3.8100 C.ar        1 MOL      -0.0264
      3 C18        28.3726    5.5071    2.4157 C.ar        1 MOL       0.1325
      4 F18        29.3865    5.2393    1.6447 F           1 MOL      -0.1834
      5 C19        27.1702    5.9703    1.8440 C.ar        1 MOL      -0.0264
      6 C20        26.0838    6.2922    2.6748 C.ar        1 MOL      -0.0388
      7 C15        26.1757    6.1395    4.0752 C.ar        1 MOL       0.0840
      8 S14        24.7665    6.3961    5.0610 S.o2        1 MOL      -0.0030
      9 O14        25.1495    6.5395    6.6006 O.2         1 MOL      -0.1699
     10 O15        24.0455    7.7422    4.6280 O.2         1 MOL      -0.1699
     11 C13        23.6469    4.9985    4.7789 C.3         1 MOL       0.1063
     12 C11        23.7763    3.7454    5.7085 C.3         1 MOL       0.1678
     13 O11        23.2361    4.1311    6.9764 O.3         1 MOL      -0.3823
     14 C12        22.8329    2.6216    5.1936 C.3         1 MOL      -0.0271
     15 C10        25.1712    3.2964    5.9062 C.2         1 MOL       0.2588
     16 O10        25.8642    3.9902    6.6237 O.2         1 MOL      -0.3300
     17 N9         25.6442    2.1959    5.3157 N.am        1 MOL      -0.2188
     18 C1         26.8677    1.5746    5.3641 C.ar        1 MOL       0.1074
     19 C2         27.2044    0.7703    4.2496 C.ar        1 MOL       0.0010
     20 C6         27.8014    1.6165    6.4240 C.ar        1 MOL      -0.0005
     21 C5         29.0279    0.9395    6.3556 C.ar        1 MOL      -0.0119
     22 C4         29.3635    0.1843    5.2199 C.ar        1 MOL       0.1068
     23 C8         30.5417   -0.3892    5.2153 C.1         1 MOL       0.1050
     24 N8         31.5726   -0.8916    5.2228 N.1         1 MOL      -0.3259
     25 C3         28.4378    0.0763    4.1466 C.ar        1 MOL       0.0666
     26 C7         28.7422   -0.7558    2.9293 C.3         1 MOL       0.3787
     27 F7B        29.8660   -0.2719    2.3015 F           1 MOL      -0.2186
     28 F7C        28.9623   -2.0646    3.2898 F           1 MOL      -0.2186
     29 F7A        27.7558   -0.7891    1.9732 F           1 MOL      -0.2186
     30 H1         27.4830    5.5477    5.6445 H           1 MOL       0.0626
     31 H2         29.3532    5.0350    4.2311 H           1 MOL       0.0604
     32 H3         27.0926    6.0792    0.8365 H           1 MOL       0.0604
     33 H4         25.2145    6.6221    2.2510 H           1 MOL       0.0626
     34 H5         23.7967    4.6883    3.7480 H           1 MOL       0.0518
     35 H6         22.6280    5.3871    4.8541 H           1 MOL       0.0518
     36 H7         23.4942    3.4448    7.6323 H           1 MOL       0.2079
     37 H8         22.9166    1.7314    5.8216 H           1 MOL       0.0244
     38 H9         23.0678    2.3410    4.1656 H           1 MOL       0.0244
     39 H10        21.7895    2.9597    5.2180 H           1 MOL       0.0244
     40 H11        24.9989    1.7496    4.7380 H           1 MOL       0.2319
     41 H12        26.5310    0.7147    3.4804 H           1 MOL       0.0781
     42 H13        27.6201    2.1294    7.2852 H           1 MOL       0.0767
     43 H14        29.6667    1.0104    7.1539 H           1 MOL       0.0766
@<TRIPOS>BOND
     1     1     2  ar
     2     1     7  ar
     3     2     3  ar
     4     3     4   1
     5     3     5  ar
     6     5     6  ar
     7     6     7  ar
     8     7     8   1
     9     8     9   2
    10     8    10   2
    11     8    11   1
    12    11    12   1
    13    12    13   1
    14    12    14   1
    15    12    15   1
    16    15    16   2
    17    15    17  am
    18    17    18   1
    19    18    19  ar
    20    18    20  ar
    21    19    25  ar
    22    20    21  ar
    23    21    22  ar
    24    22    23   1
    25    22    25  ar
    26    23    24   3
    27    25    26   1
    28    26    27   1
    29    26    28   1
    30    26    29   1
    31     1    30   1
    32     2    31   1
    33     5    32   1
    34     6    33   1
    35    11    34   1
    36    11    35   1
    37    13    36   1
    38    14    37   1
    39    14    38   1
    40    14    39   1
    41    17    40   1
    42    19    41   1
    43    20    42   1
    44    21    43   1
@<TRIPOS>SUBSTRUCTURE
     1  MOL      1

