@<TRIPOS>MOLECULE
1z95_ligand_018
    43    44
SMALL
GAST_HUCK
****
This file was generated by PARSER (from files_GN.cpp)

@<TRIPOS>ATOM
      1 C16        23.5071    2.2919    4.7526 C.ar        1 MOL      -0.0388
      2 C17        22.1585    2.2542    5.1442 C.ar        1 MOL      -0.0264
      3 C18        21.3688    3.4171    5.0698 C.ar        1 MOL       0.1325
      4 F18        20.1107    3.3906    5.4214 F           1 MOL      -0.1834
      5 C19        21.9285    4.6120    4.5878 C.ar        1 MOL      -0.0264
      6 C20        23.2750    4.6515    4.1911 C.ar        1 MOL      -0.0388
      7 C15        24.0832    3.4989    4.2939 C.ar        1 MOL       0.0840
      8 S14        25.7933    3.5724    3.9697 S.o2        1 MOL      -0.0030
      9 O14        26.4562    2.5231    4.9658 O.2         1 MOL      -0.1699
     10 O15        26.0823    3.0760    2.4907 O.2         1 MOL      -0.1699
     11 C13        26.4711    5.2218    4.3033 C.3         1 MOL       0.1063
     12 C11        28.0174    5.4072    4.2141 C.3         1 MOL       0.1678
     13 O11        28.3498    5.5420    2.8216 O.3         1 MOL      -0.3823
     14 C12        28.4007    6.7652    4.8719 C.3         1 MOL      -0.0271
     15 C10        28.7688    4.2797    4.7692 C.2         1 MOL       0.2588
     16 O10        28.9047    4.1929    5.9806 O.2         1 MOL      -0.3300
     17 N9         29.0494    3.2470    3.9798 N.am        1 MOL      -0.2188
     18 C1         29.5772    2.0273    4.2839 C.ar        1 MOL       0.1074
     19 C2         30.6217    1.8212    5.2116 C.ar        1 MOL       0.0010
     20 C6         29.0809    0.9300    3.5579 C.ar        1 MOL      -0.0005
     21 C5         29.5736   -0.3609    3.7920 C.ar        1 MOL      -0.0119
     22 C4         30.5948   -0.5740    4.7420 C.ar        1 MOL       0.1068
     23 C8         31.0095   -1.8089    4.8939 C.1         1 MOL       0.1050
     24 N8         31.3684   -2.8875    5.0159 N.1         1 MOL      -0.3259
     25 C3         31.1478    0.5262    5.4641 C.ar        1 MOL       0.0666
     26 C7         32.2597    0.3472    6.4532 C.3         1 MOL       0.3787
     27 F7B        31.8826   -0.5261    7.4443 F           1 MOL      -0.2186
     28 F7C        33.3695   -0.1551    5.8227 F           1 MOL      -0.2186
     29 F7A        32.6744    1.4910    7.0925 F           1 MOL      -0.2186
     30 H1         24.0612    1.4332    4.8195 H           1 MOL       0.0626
     31 H2         21.7544    1.3824    5.4912 H           1 MOL       0.0604
     32 H3         21.3555    5.4563    4.5333 H           1 MOL       0.0604
     33 H4         23.6555    5.5306    3.8413 H           1 MOL       0.0626
     34 H5         26.1211    5.4970    5.2951 H           1 MOL       0.0518
     35 H6         25.9929    5.9094    3.5999 H           1 MOL       0.0518
     36 H7         29.3099    5.3267    2.7546 H           1 MOL       0.2079
     37 H8         29.4592    6.9649    4.7324 H           1 MOL       0.0244
     38 H9         28.1937    6.7578    5.9417 H           1 MOL       0.0244
     39 H10        27.8402    7.5876    4.4248 H           1 MOL       0.0244
     40 H11        28.7108    3.3264    3.0774 H           1 MOL       0.2319
     41 H12        31.0168    2.6360    5.6821 H           1 MOL       0.0781
     42 H13        28.3401    1.0625    2.8645 H           1 MOL       0.0767
     43 H14        29.1750   -1.1360    3.2546 H           1 MOL       0.0766
@<TRIPOS>BOND
     1     1     2  ar
     2     1     7  ar
     3     2     3  ar
     4     3     4   1
     5     3     5  ar
     6     5     6  ar
     7     6     7  ar
     8     7     8   1
     9     8     9   2
    10     8    10   2
    11     8    11   1
    12    11    12   1
    13    12    13   1
    14    12    14   1
    15    12    15   1
    16    15    16   2
    17    15    17  am
    18    17    18   1
    19    18    19  ar
    20    18    20  ar
    21    19    25  ar
    22    20    21  ar
    23    21    22  ar
    24    22    23   1
    25    22    25  ar
    26    23    24   3
    27    25    26   1
    28    26    27   1
    29    26    28   1
    30    26    29   1
    31     1    30   1
    32     2    31   1
    33     5    32   1
    34     6    33   1
    35    11    34   1
    36    11    35   1
    37    13    36   1
    38    14    37   1
    39    14    38   1
    40    14    39   1
    41    17    40   1
    42    19    41   1
    43    20    42   1
    44    21    43   1
@<TRIPOS>SUBSTRUCTURE
     1  MOL      1

