@<TRIPOS>MOLECULE
1z95_ligand_012
    43    44
SMALL
GAST_HUCK
****
This file was generated by PARSER (from files_GN.cpp)

@<TRIPOS>ATOM
      1 C16        25.3058    2.9045    3.0283 C.ar        1 MOL      -0.0388
      2 C17        25.2707    1.5761    2.5632 C.ar        1 MOL      -0.0264
      3 C18        24.2781    0.6938    3.0260 C.ar        1 MOL       0.1325
      4 F18        24.2236   -0.5324    2.5840 F           1 MOL      -0.1834
      5 C19        23.3314    1.1419    3.9643 C.ar        1 MOL      -0.0264
      6 C20        23.3598    2.4719    4.4226 C.ar        1 MOL      -0.0388
      7 C15        24.3571    3.3636    3.9696 C.ar        1 MOL       0.0840
      8 S14        24.3941    4.9724    4.6481 S.o2        1 MOL      -0.0030
      9 O14        23.2735    5.8381    3.9192 O.2         1 MOL      -0.1699
     10 O15        23.7530    4.8117    6.0946 O.2         1 MOL      -0.1699
     11 C13        25.8557    6.0250    4.9114 C.3         1 MOL       0.1063
     12 C11        27.2634    5.5458    4.4058 C.3         1 MOL       0.1678
     13 O11        27.2275    5.5529    2.9730 O.3         1 MOL      -0.3823
     14 C12        28.3634    6.5733    4.7964 C.3         1 MOL      -0.0271
     15 C10        27.6401    4.2223    4.8953 C.2         1 MOL       0.2588
     16 O10        27.4477    3.9536    6.0789 O.2         1 MOL      -0.3300
     17 N9         28.2558    3.3458    4.1125 N.am        1 MOL      -0.2188
     18 C1         28.4106    2.0042    4.3127 C.ar        1 MOL       0.1074
     19 C2         27.3605    1.1948    4.7986 C.ar        1 MOL       0.0010
     20 C6         29.5822    1.3825    3.8424 C.ar        1 MOL      -0.0005
     21 C5         29.7193   -0.0125    3.8890 C.ar        1 MOL      -0.0119
     22 C4         28.6569   -0.8195    4.3455 C.ar        1 MOL       0.1068
     23 C8         28.8362   -2.1085    4.2991 C.1         1 MOL       0.1050
     24 N8         29.0147   -3.2413    4.2525 N.1         1 MOL      -0.3259
     25 C3         27.4372   -0.2217    4.7888 C.ar        1 MOL       0.0666
     26 C7         26.2346   -1.0398    5.1649 C.3         1 MOL       0.3787
     27 F7B        25.8485   -1.8141    4.0981 F           1 MOL      -0.2186
     28 F7C        26.5160   -1.8690    6.2201 F           1 MOL      -0.2186
     29 F7A        25.1186   -0.3207    5.5307 F           1 MOL      -0.2186
     30 H1         26.0180    3.5316    2.6649 H           1 MOL       0.0626
     31 H2         25.9673    1.2565    1.8847 H           1 MOL       0.0604
     32 H3         22.6200    0.4977    4.3169 H           1 MOL       0.0604
     33 H4         22.6524    2.7739    5.0989 H           1 MOL       0.0626
     34 H5         25.9026    6.1801    5.9953 H           1 MOL       0.0518
     35 H6         25.6324    7.0039    4.4769 H           1 MOL       0.0518
     36 H7         26.6144    6.2803    2.7240 H           1 MOL       0.2079
     37 H8         29.3109    6.2973    4.3336 H           1 MOL       0.0244
     38 H9         28.5066    6.6200    5.8771 H           1 MOL       0.0244
     39 H10        28.0919    7.5735    4.4484 H           1 MOL       0.0244
     40 H11        28.5938    3.6808    3.2657 H           1 MOL       0.2319
     41 H12        26.4993    1.6553    5.0979 H           1 MOL       0.0781
     42 H13        30.3477    1.9412    3.4575 H           1 MOL       0.0767
     43 H14        30.5910   -0.4277    3.5498 H           1 MOL       0.0766
@<TRIPOS>BOND
     1     1     2  ar
     2     1     7  ar
     3     2     3  ar
     4     3     4   1
     5     3     5  ar
     6     5     6  ar
     7     6     7  ar
     8     7     8   1
     9     8     9   2
    10     8    10   2
    11     8    11   1
    12    11    12   1
    13    12    13   1
    14    12    14   1
    15    12    15   1
    16    15    16   2
    17    15    17  am
    18    17    18   1
    19    18    19  ar
    20    18    20  ar
    21    19    25  ar
    22    20    21  ar
    23    21    22  ar
    24    22    23   1
    25    22    25  ar
    26    23    24   3
    27    25    26   1
    28    26    27   1
    29    26    28   1
    30    26    29   1
    31     1    30   1
    32     2    31   1
    33     5    32   1
    34     6    33   1
    35    11    34   1
    36    11    35   1
    37    13    36   1
    38    14    37   1
    39    14    38   1
    40    14    39   1
    41    17    40   1
    42    19    41   1
    43    20    42   1
    44    21    43   1
@<TRIPOS>SUBSTRUCTURE
     1  MOL      1

