@<TRIPOS>MOLECULE
1z95_ligand_001
    43    44
SMALL
GAST_HUCK
****
This file was generated by PARSER (from files_GN.cpp)

@<TRIPOS>ATOM
      1 C16        24.0522    1.7855    3.8164 C.ar        1 MOL      -0.0388
      2 C17        24.4028    0.4428    3.5654 C.ar        1 MOL      -0.0264
      3 C18        25.4843   -0.1372    4.2568 C.ar        1 MOL       0.1325
      4 F18        25.8549   -1.3611    4.0026 F           1 MOL      -0.1834
      5 C19        26.1840    0.6100    5.2175 C.ar        1 MOL      -0.0264
      6 C20        25.8391    1.9521    5.4579 C.ar        1 MOL      -0.0388
      7 C15        24.7915    2.5608    4.7384 C.ar        1 MOL       0.0840
      8 S14        24.4114    4.2450    4.9824 S.o2        1 MOL      -0.0030
      9 O14        23.6025    4.8340    3.7451 O.2         1 MOL      -0.1699
     10 O15        23.4108    4.3484    6.2153 O.2         1 MOL      -0.1699
     11 C13        25.8037    5.3497    5.3370 C.3         1 MOL       0.1063
     12 C11        27.0796    5.2208    4.4274 C.3         1 MOL       0.1678
     13 O11        26.6696    5.0935    3.0590 O.3         1 MOL      -0.3823
     14 C12        27.9220    6.5319    4.4923 C.3         1 MOL      -0.0271
     15 C10        27.9297    4.0919    4.8265 C.2         1 MOL       0.2588
     16 O10        28.3326    4.0620    5.9855 O.2         1 MOL      -0.3300
     17 N9         28.2541    3.1196    3.9750 N.am        1 MOL      -0.2188
     18 C1         29.0090    1.9882    4.1725 C.ar        1 MOL       0.1074
     19 C2         30.0670    1.8496    5.1021 C.ar        1 MOL       0.0010
     20 C6         28.6926    0.8828    3.3600 C.ar        1 MOL      -0.0005
     21 C5         29.3490   -0.3462    3.5241 C.ar        1 MOL      -0.0119
     22 C4         30.3559   -0.4956    4.5029 C.ar        1 MOL       0.1068
     23 C8         30.8996   -1.6773    4.6246 C.1         1 MOL       0.1050
     24 N8         31.3853   -2.7170    4.7250 N.1         1 MOL      -0.3259
     25 C3         30.7523    0.6206    5.2987 C.ar        1 MOL       0.0666
     26 C7         31.8492    0.5174    6.3198 C.3         1 MOL       0.3787
     27 F7B        31.5391   -0.4388    7.2565 F           1 MOL      -0.2186
     28 F7C        33.0329    0.1691    5.7163 F           1 MOL      -0.2186
     29 F7A        32.1089    1.6695    7.0248 F           1 MOL      -0.2186
     30 H1         23.2705    2.1916    3.3036 H           1 MOL       0.0626
     31 H2         23.8792   -0.0952    2.8738 H           1 MOL       0.0604
     32 H3         26.9642    0.1830    5.7280 H           1 MOL       0.0604
     33 H4         26.3773    2.4916    6.1455 H           1 MOL       0.0626
     34 H5         26.0642    5.2036    6.3857 H           1 MOL       0.0518
     35 H6         25.3941    6.3604    5.2626 H           1 MOL       0.0518
     36 H7         26.1110    5.8774    2.8699 H           1 MOL       0.2079
     37 H8         28.8266    6.4345    3.8846 H           1 MOL       0.0244
     38 H9         28.2168    6.7641    5.5208 H           1 MOL       0.0244
     39 H10        27.3421    7.3771    4.1043 H           1 MOL       0.0244
     40 H11        27.8241    3.1737    3.1074 H           1 MOL       0.2319
     41 H12        30.3524    2.6668    5.6420 H           1 MOL       0.0781
     42 H13        27.9562    0.9592    2.6498 H           1 MOL       0.0767
     43 H14        29.0736   -1.1301    2.9227 H           1 MOL       0.0766
@<TRIPOS>BOND
     1     1     2  ar
     2     1     7  ar
     3     2     3  ar
     4     3     4   1
     5     3     5  ar
     6     5     6  ar
     7     6     7  ar
     8     7     8   1
     9     8     9   2
    10     8    10   2
    11     8    11   1
    12    11    12   1
    13    12    13   1
    14    12    14   1
    15    12    15   1
    16    15    16   2
    17    15    17  am
    18    17    18   1
    19    18    19  ar
    20    18    20  ar
    21    19    25  ar
    22    20    21  ar
    23    21    22  ar
    24    22    23   1
    25    22    25  ar
    26    23    24   3
    27    25    26   1
    28    26    27   1
    29    26    28   1
    30    26    29   1
    31     1    30   1
    32     2    31   1
    33     5    32   1
    34     6    33   1
    35    11    34   1
    36    11    35   1
    37    13    36   1
    38    14    37   1
    39    14    38   1
    40    14    39   1
    41    17    40   1
    42    19    41   1
    43    20    42   1
    44    21    43   1
@<TRIPOS>SUBSTRUCTURE
     1  MOL      1

