@<TRIPOS>MOLECULE
1z95_ligand_029
    43    44
SMALL
GAST_HUCK
****
This file was generated by PARSER (from files_GN.cpp)

@<TRIPOS>ATOM
      1 C16        23.1192    4.4869    4.7682 C.ar        1 MOL      -0.0388
      2 C17        22.7058    3.3902    5.5445 C.ar        1 MOL      -0.0264
      3 C18        23.5064    2.9382    6.6156 C.ar        1 MOL       0.1325
      4 F18        23.1325    1.9162    7.3295 F           1 MOL      -0.1834
      5 C19        24.7047    3.6065    6.9204 C.ar        1 MOL      -0.0264
      6 C20        25.1051    4.7179    6.1594 C.ar        1 MOL      -0.0388
      7 C15        24.3234    5.1600    5.0698 C.ar        1 MOL       0.0840
      8 S14        24.8258    6.5585    4.1557 S.o2        1 MOL      -0.0030
      9 O14        23.8601    6.7864    2.9090 O.2         1 MOL      -0.1699
     10 O15        24.5574    7.8356    5.0754 O.2         1 MOL      -0.1699
     11 C13        26.5338    6.6202    3.5387 C.3         1 MOL       0.1063
     12 C11        27.2930    5.2560    3.3832 C.3         1 MOL       0.1678
     13 O11        26.3605    4.2628    2.9232 O.3         1 MOL      -0.3823
     14 C12        28.3953    5.3443    2.2859 C.3         1 MOL      -0.0271
     15 C10        27.9439    4.7835    4.6120 C.2         1 MOL       0.2588
     16 O10        28.4229    5.6001    5.3884 O.2         1 MOL      -0.3300
     17 N9         28.3005    3.5046    4.6765 N.am        1 MOL      -0.2188
     18 C1         29.0921    2.8507    5.5737 C.ar        1 MOL       0.1074
     19 C2         29.6211    1.6126    5.1548 C.ar        1 MOL       0.0010
     20 C6         29.3655    3.2931    6.8826 C.ar        1 MOL      -0.0005
     21 C5         30.1538    2.5182    7.7463 C.ar        1 MOL      -0.0119
     22 C4         30.6935    1.2830    7.3198 C.ar        1 MOL       0.1068
     23 C8         31.4269    0.6196    8.1731 C.1         1 MOL       0.1050
     24 N8         32.0708    0.0492    8.9346 N.1         1 MOL      -0.3259
     25 C3         30.4345    0.8136    5.9973 C.ar        1 MOL       0.0666
     26 C7         30.9777   -0.4839    5.4896 C.3         1 MOL       0.3787
     27 F7B        32.3506   -0.4925    5.5694 F           1 MOL      -0.2186
     28 F7C        30.4772   -1.5087    6.2510 F           1 MOL      -0.2186
     29 F7A        30.6625   -0.7956    4.1845 F           1 MOL      -0.2186
     30 H1         22.5318    4.7906    3.9831 H           1 MOL       0.0626
     31 H2         21.8260    2.9214    5.3312 H           1 MOL       0.0604
     32 H3         25.2817    3.2929    7.7024 H           1 MOL       0.0604
     33 H4         25.9623    5.2101    6.4105 H           1 MOL       0.0626
     34 H5         27.1062    7.3021    4.1773 H           1 MOL       0.0518
     35 H6         26.4650    7.1141    2.5617 H           1 MOL       0.0518
     36 H7         26.0693    4.5698    2.0397 H           1 MOL       0.2079
     37 H8         28.8613    4.3694    2.1170 H           1 MOL       0.0244
     38 H9         29.1805    6.0418    2.5781 H           1 MOL       0.0244
     39 H10        27.9724    5.6798    1.3325 H           1 MOL       0.0244
     40 H11        28.0264    2.9669    3.9147 H           1 MOL       0.2319
     41 H12        29.4025    1.2970    4.2061 H           1 MOL       0.0781
     42 H13        28.9718    4.1681    7.2288 H           1 MOL       0.0767
     43 H14        30.3234    2.8720    8.6975 H           1 MOL       0.0766
@<TRIPOS>BOND
     1     1     2  ar
     2     1     7  ar
     3     2     3  ar
     4     3     4   1
     5     3     5  ar
     6     5     6  ar
     7     6     7  ar
     8     7     8   1
     9     8     9   2
    10     8    10   2
    11     8    11   1
    12    11    12   1
    13    12    13   1
    14    12    14   1
    15    12    15   1
    16    15    16   2
    17    15    17  am
    18    17    18   1
    19    18    19  ar
    20    18    20  ar
    21    19    25  ar
    22    20    21  ar
    23    21    22  ar
    24    22    23   1
    25    22    25  ar
    26    23    24   3
    27    25    26   1
    28    26    27   1
    29    26    28   1
    30    26    29   1
    31     1    30   1
    32     2    31   1
    33     5    32   1
    34     6    33   1
    35    11    34   1
    36    11    35   1
    37    13    36   1
    38    14    37   1
    39    14    38   1
    40    14    39   1
    41    17    40   1
    42    19    41   1
    43    20    42   1
    44    21    43   1
@<TRIPOS>SUBSTRUCTURE
     1  MOL      1

