@<TRIPOS>MOLECULE
1z95_ligand_013
    43    44
SMALL
GAST_HUCK
****
This file was generated by PARSER (from files_GN.cpp)

@<TRIPOS>ATOM
      1 C16        29.8695    0.1142    4.1260 C.ar        1 MOL      -0.0388
      2 C17        29.0532   -0.4421    3.1276 C.ar        1 MOL      -0.0264
      3 C18        29.0659   -1.8309    2.9038 C.ar        1 MOL       0.1325
      4 F18        28.2703   -2.3455    2.0091 F           1 MOL      -0.1834
      5 C19        29.9297   -2.6557    3.6495 C.ar        1 MOL      -0.0264
      6 C20        30.7388   -2.0986    4.6585 C.ar        1 MOL      -0.0388
      7 C15        30.6835   -0.7140    4.9314 C.ar        1 MOL       0.0840
      8 S14        31.5781   -0.0521    6.2770 S.o2        1 MOL      -0.0030
      9 O14        31.5495   -1.0457    7.5179 O.2         1 MOL      -0.1699
     10 O15        33.0985    0.0836    5.8349 O.2         1 MOL      -0.1699
     11 C13        31.0314    1.5896    6.8188 C.3         1 MOL       0.1063
     12 C11        29.5674    1.7332    7.4019 C.3         1 MOL       0.1678
     13 O11        28.8176    0.5313    7.1850 O.3         1 MOL      -0.3823
     14 C12        29.5837    1.8959    8.9510 C.3         1 MOL      -0.0271
     15 C10        28.8711    2.8910    6.8067 C.2         1 MOL       0.2588
     16 O10        29.4720    3.9528    6.7806 O.2         1 MOL      -0.3300
     17 N9         27.6407    2.7915    6.2967 N.am        1 MOL      -0.2188
     18 C1         26.8715    3.7307    5.6519 C.ar        1 MOL       0.1074
     19 C2         25.4787    3.4851    5.6075 C.ar        1 MOL       0.0010
     20 C6         27.3670    4.8760    4.9943 C.ar        1 MOL      -0.0005
     21 C5         26.4963    5.7787    4.3671 C.ar        1 MOL      -0.0119
     22 C4         25.1056    5.5410    4.3553 C.ar        1 MOL       0.1068
     23 C8         24.3670    6.4367    3.7525 C.1         1 MOL       0.1050
     24 N8         23.7344    7.2329    3.2233 N.1         1 MOL      -0.3259
     25 C3         24.5702    4.3670    4.9618 C.ar        1 MOL       0.0666
     26 C7         23.1035    4.0523    4.9239 C.3         1 MOL       0.3787
     27 F7B        22.3964    5.0391    5.5618 F           1 MOL      -0.2186
     28 F7C        22.6705    3.9776    3.6237 F           1 MOL      -0.2186
     29 F7A        22.7376    2.8651    5.5134 F           1 MOL      -0.2186
     30 H1         29.8332    1.1230    4.2810 H           1 MOL       0.0626
     31 H2         28.4393    0.1646    2.5788 H           1 MOL       0.0604
     32 H3         29.9601   -3.6620    3.4711 H           1 MOL       0.0604
     33 H4         31.3527   -2.7136    5.1992 H           1 MOL       0.0626
     34 H5         31.1724    2.2346    5.9488 H           1 MOL       0.0518
     35 H6         31.7612    1.9273    7.5563 H           1 MOL       0.0518
     36 H7         28.7286    0.4457    6.2152 H           1 MOL       0.2079
     37 H8         28.5652    1.9232    9.3488 H           1 MOL       0.0244
     38 H9         30.0891    2.8171    9.2487 H           1 MOL       0.0244
     39 H10        30.1072    1.0546    9.4116 H           1 MOL       0.0244
     40 H11        27.1944    1.9437    6.4525 H           1 MOL       0.2319
     41 H12        25.1256    2.6419    6.0733 H           1 MOL       0.0781
     42 H13        28.3662    5.0730    4.9470 H           1 MOL       0.0767
     43 H14        26.8983    6.6057    3.9123 H           1 MOL       0.0766
@<TRIPOS>BOND
     1     1     2  ar
     2     1     7  ar
     3     2     3  ar
     4     3     4   1
     5     3     5  ar
     6     5     6  ar
     7     6     7  ar
     8     7     8   1
     9     8     9   2
    10     8    10   2
    11     8    11   1
    12    11    12   1
    13    12    13   1
    14    12    14   1
    15    12    15   1
    16    15    16   2
    17    15    17  am
    18    17    18   1
    19    18    19  ar
    20    18    20  ar
    21    19    25  ar
    22    20    21  ar
    23    21    22  ar
    24    22    23   1
    25    22    25  ar
    26    23    24   3
    27    25    26   1
    28    26    27   1
    29    26    28   1
    30    26    29   1
    31     1    30   1
    32     2    31   1
    33     5    32   1
    34     6    33   1
    35    11    34   1
    36    11    35   1
    37    13    36   1
    38    14    37   1
    39    14    38   1
    40    14    39   1
    41    17    40   1
    42    19    41   1
    43    20    42   1
    44    21    43   1
@<TRIPOS>SUBSTRUCTURE
     1  MOL      1

