@<TRIPOS>MOLECULE
1z95_ligand_027
    43    44
SMALL
GAST_HUCK
****
This file was generated by PARSER (from files_GN.cpp)

@<TRIPOS>ATOM
      1 C16        26.5927    3.7152    5.8868 C.ar        1 MOL      -0.0388
      2 C17        27.4375    2.5913    5.9789 C.ar        1 MOL      -0.0264
      3 C18        28.3187    2.2870    4.9251 C.ar        1 MOL       0.1325
      4 F18        29.0866    1.2316    4.9979 F           1 MOL      -0.1834
      5 C19        28.3630    3.1157    3.7902 C.ar        1 MOL      -0.0264
      6 C20        27.5252    4.2390    3.7017 C.ar        1 MOL      -0.0388
      7 C15        26.6164    4.5385    4.7414 C.ar        1 MOL       0.0840
      8 S14        25.5120    5.8833    4.6120 S.o2        1 MOL      -0.0030
      9 O14        25.5606    6.7546    5.9383 O.2         1 MOL      -0.1699
     10 O15        25.9818    6.8747    3.4558 O.2         1 MOL      -0.1699
     11 C13        23.7797    5.4557    4.2876 C.3         1 MOL       0.1063
     12 C11        23.1370    4.3222    5.1648 C.3         1 MOL       0.1678
     13 O11        23.1944    4.8005    6.5161 O.3         1 MOL      -0.3823
     14 C12        21.6286    4.1838    4.8147 C.3         1 MOL      -0.0271
     15 C10        23.7440    2.9925    5.0572 C.2         1 MOL       0.2588
     16 O10        23.4377    2.1647    5.9072 O.2         1 MOL      -0.3300
     17 N9         24.5112    2.6638    4.0237 N.am        1 MOL      -0.2188
     18 C1         25.3021    1.5686    3.7858 C.ar        1 MOL       0.1074
     19 C2         25.4491    0.4304    4.6182 C.ar        1 MOL       0.0010
     20 C6         26.1057    1.6490    2.6316 C.ar        1 MOL      -0.0005
     21 C5         27.0692    0.6702    2.3565 C.ar        1 MOL      -0.0119
     22 C4         27.2392   -0.4355    3.2120 C.ar        1 MOL       0.1068
     23 C8         28.1981   -1.2760    2.9208 C.1         1 MOL       0.1050
     24 N8         29.0444   -2.0137    2.6761 N.1         1 MOL      -0.3259
     25 C3         26.4087   -0.5833    4.3607 C.ar        1 MOL       0.0666
     26 C7         26.5793   -1.7269    5.3107 C.3         1 MOL       0.3787
     27 F7B        26.3928   -2.9323    4.6733 F           1 MOL      -0.2186
     28 F7C        27.8508   -1.6762    5.8245 F           1 MOL      -0.2186
     29 F7A        25.7363   -1.7313    6.3916 F           1 MOL      -0.2186
     30 H1         25.9603    3.9225    6.6599 H           1 MOL       0.0626
     31 H2         27.3953    1.9897    6.8065 H           1 MOL       0.0604
     32 H3         29.0125    2.9067    3.0301 H           1 MOL       0.0604
     33 H4         27.5691    4.8276    2.8623 H           1 MOL       0.0626
     34 H5         23.6818    5.2102    3.2334 H           1 MOL       0.0518
     35 H6         23.2191    6.3814    4.4489 H           1 MOL       0.0518
     36 H7         23.6109    4.0915    7.0528 H           1 MOL       0.2079
     37 H8         21.1430    3.4472    5.4585 H           1 MOL       0.0244
     38 H9         21.5132    3.8695    3.7768 H           1 MOL       0.0244
     39 H10        21.1081    5.1354    4.9524 H           1 MOL       0.0244
     40 H11        24.5979    3.3531    3.3529 H           1 MOL       0.2319
     41 H12        24.8618    0.3457    5.4489 H           1 MOL       0.0781
     42 H13        26.0148    2.4407    1.9934 H           1 MOL       0.0767
     43 H14        27.6762    0.7988    1.5408 H           1 MOL       0.0766
@<TRIPOS>BOND
     1     1     2  ar
     2     1     7  ar
     3     2     3  ar
     4     3     4   1
     5     3     5  ar
     6     5     6  ar
     7     6     7  ar
     8     7     8   1
     9     8     9   2
    10     8    10   2
    11     8    11   1
    12    11    12   1
    13    12    13   1
    14    12    14   1
    15    12    15   1
    16    15    16   2
    17    15    17  am
    18    17    18   1
    19    18    19  ar
    20    18    20  ar
    21    19    25  ar
    22    20    21  ar
    23    21    22  ar
    24    22    23   1
    25    22    25  ar
    26    23    24   3
    27    25    26   1
    28    26    27   1
    29    26    28   1
    30    26    29   1
    31     1    30   1
    32     2    31   1
    33     5    32   1
    34     6    33   1
    35    11    34   1
    36    11    35   1
    37    13    36   1
    38    14    37   1
    39    14    38   1
    40    14    39   1
    41    17    40   1
    42    19    41   1
    43    20    42   1
    44    21    43   1
@<TRIPOS>SUBSTRUCTURE
     1  MOL      1

