@<TRIPOS>MOLECULE
1z95_ligand_048
    43    44
SMALL
GAST_HUCK
****
This file was generated by PARSER (from files_GN.cpp)

@<TRIPOS>ATOM
      1 C16        31.0937    2.0397   12.6089 C.ar        1 MOL      -0.0388
      2 C17        31.9817    3.1175   12.7671 C.ar        1 MOL      -0.0264
      3 C18        33.3076    3.0176   12.3006 C.ar        1 MOL       0.1325
      4 F18        34.1470    4.0015   12.4743 F           1 MOL      -0.1834
      5 C19        33.7336    1.8294   11.6812 C.ar        1 MOL      -0.0264
      6 C20        32.8401    0.7631   11.4848 C.ar        1 MOL      -0.0388
      7 C15        31.5082    0.8628   11.9473 C.ar        1 MOL       0.0840
      8 S14        30.3868   -0.4322   11.6521 S.o2        1 MOL      -0.0030
      9 O14        31.2311   -1.7769   11.5264 O.2         1 MOL      -0.1699
     10 O15        29.3549   -0.6645   12.8428 O.2         1 MOL      -0.1699
     11 C13        29.5990   -0.1817   10.0386 C.3         1 MOL       0.1063
     12 C11        28.6450    1.0552    9.8008 C.3         1 MOL       0.1678
     13 O11        27.3065    0.5473    9.8343 O.3         1 MOL      -0.3823
     14 C12        28.6062    2.1794   10.8836 C.3         1 MOL      -0.0271
     15 C10        28.9459    1.6838    8.5020 C.2         1 MOL       0.2588
     16 O10        30.1184    1.9699    8.2756 O.2         1 MOL      -0.3300
     17 N9         27.9875    1.9532    7.6224 N.am        1 MOL      -0.2188
     18 C1         27.9842    2.6502    6.4389 C.ar        1 MOL       0.1074
     19 C2         26.8618    2.4247    5.6057 C.ar        1 MOL       0.0010
     20 C6         28.9372    3.6032    6.0191 C.ar        1 MOL      -0.0005
     21 C5         28.7477    4.3420    4.8419 C.ar        1 MOL      -0.0119
     22 C4         27.5991    4.1417    4.0467 C.ar        1 MOL       0.1068
     23 C8         27.4504    4.9104    3.0007 C.1         1 MOL       0.1050
     24 N8         27.3056    5.5886    2.0857 N.1         1 MOL      -0.3259
     25 C3         26.6358    3.1558    4.4153 C.ar        1 MOL       0.0666
     26 C7         25.3956    2.9151    3.6029 C.3         1 MOL       0.3787
     27 F7B        24.6301    4.0560    3.5776 F           1 MOL      -0.2186
     28 F7C        25.7251    2.5715    2.3134 F           1 MOL      -0.2186
     29 F7A        24.5746    1.9126    4.0645 F           1 MOL      -0.2186
     30 H1         30.1380    2.1227   12.9631 H           1 MOL       0.0626
     31 H2         31.6618    3.9720   13.2330 H           1 MOL       0.0604
     32 H3         34.6962    1.7452   11.3661 H           1 MOL       0.0604
     33 H4         33.1721   -0.0814   11.0156 H           1 MOL       0.0626
     34 H5         29.0508   -1.1029    9.8230 H           1 MOL       0.0518
     35 H6         30.4337   -0.1704    9.3251 H           1 MOL       0.0518
     36 H7         27.2163    0.1241   10.7208 H           1 MOL       0.2079
     37 H8         27.8303    2.9141   10.6376 H           1 MOL       0.0244
     38 H9         29.5661    2.6970   10.9464 H           1 MOL       0.0244
     39 H10        28.3641    1.7700   11.8609 H           1 MOL       0.0244
     40 H11        27.1103    1.6567    7.8976 H           1 MOL       0.2319
     41 H12        26.1766    1.7273    5.9021 H           1 MOL       0.0781
     42 H13        29.7734    3.7949    6.5723 H           1 MOL       0.0767
     43 H14        29.4484    5.0413    4.5892 H           1 MOL       0.0766
@<TRIPOS>BOND
     1     1     2  ar
     2     1     7  ar
     3     2     3  ar
     4     3     4   1
     5     3     5  ar
     6     5     6  ar
     7     6     7  ar
     8     7     8   1
     9     8     9   2
    10     8    10   2
    11     8    11   1
    12    11    12   1
    13    12    13   1
    14    12    14   1
    15    12    15   1
    16    15    16   2
    17    15    17  am
    18    17    18   1
    19    18    19  ar
    20    18    20  ar
    21    19    25  ar
    22    20    21  ar
    23    21    22  ar
    24    22    23   1
    25    22    25  ar
    26    23    24   3
    27    25    26   1
    28    26    27   1
    29    26    28   1
    30    26    29   1
    31     1    30   1
    32     2    31   1
    33     5    32   1
    34     6    33   1
    35    11    34   1
    36    11    35   1
    37    13    36   1
    38    14    37   1
    39    14    38   1
    40    14    39   1
    41    17    40   1
    42    19    41   1
    43    20    42   1
    44    21    43   1
@<TRIPOS>SUBSTRUCTURE
     1  MOL      1

