@<TRIPOS>MOLECULE
1z95_ligand_024
    43    44
SMALL
GAST_HUCK
****
This file was generated by PARSER (from files_GN.cpp)

@<TRIPOS>ATOM
      1 C16        28.0876    0.7442    6.5126 C.ar        1 MOL      -0.0388
      2 C17        29.2918    0.1874    6.9881 C.ar        1 MOL      -0.0264
      3 C18        30.3827    1.0333    7.3092 C.ar        1 MOL       0.1325
      4 F18        31.5048    0.5264    7.7331 F           1 MOL      -0.1834
      5 C19        30.2294    2.4220    7.2033 C.ar        1 MOL      -0.0264
      6 C20        29.0120    2.9781    6.7819 C.ar        1 MOL      -0.0388
      7 C15        27.9196    2.1454    6.4185 C.ar        1 MOL       0.0840
      8 S14        26.4382    2.8363    5.8372 S.o2        1 MOL      -0.0030
      9 O14        25.5517    1.7744    5.0057 O.2         1 MOL      -0.1699
     10 O15        25.5757    3.2415    7.1179 O.2         1 MOL      -0.1699
     11 C13        26.6569    4.3290    4.8459 C.3         1 MOL       0.1063
     12 C11        27.4260    4.1733    3.4828 C.3         1 MOL       0.1678
     13 O11        26.4517    3.8878    2.4709 O.3         1 MOL      -0.3823
     14 C12        28.0782    5.5279    3.0873 C.3         1 MOL      -0.0271
     15 C10        28.4289    3.0944    3.5252 C.2         1 MOL       0.2588
     16 O10        29.4435    3.2755    4.1890 O.2         1 MOL      -0.3300
     17 N9         28.1173    1.8946    3.0443 N.am        1 MOL      -0.2188
     18 C1         28.6827    0.6488    3.1949 C.ar        1 MOL       0.1074
     19 C2         29.8496    0.3229    3.9289 C.ar        1 MOL       0.0010
     20 C6         27.9523   -0.4070    2.6142 C.ar        1 MOL      -0.0005
     21 C5         28.3454   -1.7432    2.7838 C.ar        1 MOL      -0.0119
     22 C4         29.4913   -2.0602    3.5469 C.ar        1 MOL       0.1068
     23 C8         29.7998   -3.3217    3.6855 C.1         1 MOL       0.1050
     24 N8         30.0853   -4.4266    3.8198 N.1         1 MOL      -0.3259
     25 C3         30.2678   -1.0156    4.1346 C.ar        1 MOL       0.0666
     26 C7         31.4871   -1.3165    4.9458 C.3         1 MOL       0.3787
     27 F7B        31.1608   -2.0985    6.0217 F           1 MOL      -0.2186
     28 F7C        32.4062   -1.9939    4.1825 F           1 MOL      -0.2186
     29 F7A        32.1511   -0.2216    5.4582 F           1 MOL      -0.2186
     30 H1         27.3281    0.1167    6.2487 H           1 MOL       0.0626
     31 H2         29.3853   -0.8224    7.0776 H           1 MOL       0.0604
     32 H3         31.0068    3.0431    7.4430 H           1 MOL       0.0604
     33 H4         28.9410    3.9891    6.7110 H           1 MOL       0.0626
     34 H5         27.1672    5.0500    5.4813 H           1 MOL       0.0518
     35 H6         25.6664    4.7487    4.6429 H           1 MOL       0.0518
     36 H7         25.8454    4.6576    2.4632 H           1 MOL       0.2079
     37 H8         28.5831    5.4554    2.1180 H           1 MOL       0.0244
     38 H9         28.8066    5.8479    3.8322 H           1 MOL       0.0244
     39 H10        27.3092    6.3059    3.0106 H           1 MOL       0.0244
     40 H11        27.2709    1.8675    2.5767 H           1 MOL       0.2319
     41 H12        30.3918    1.0754    4.3433 H           1 MOL       0.0781
     42 H13        27.1082   -0.2131    2.0657 H           1 MOL       0.0767
     43 H14        27.7759   -2.4783    2.3499 H           1 MOL       0.0766
@<TRIPOS>BOND
     1     1     2  ar
     2     1     7  ar
     3     2     3  ar
     4     3     4   1
     5     3     5  ar
     6     5     6  ar
     7     6     7  ar
     8     7     8   1
     9     8     9   2
    10     8    10   2
    11     8    11   1
    12    11    12   1
    13    12    13   1
    14    12    14   1
    15    12    15   1
    16    15    16   2
    17    15    17  am
    18    17    18   1
    19    18    19  ar
    20    18    20  ar
    21    19    25  ar
    22    20    21  ar
    23    21    22  ar
    24    22    23   1
    25    22    25  ar
    26    23    24   3
    27    25    26   1
    28    26    27   1
    29    26    28   1
    30    26    29   1
    31     1    30   1
    32     2    31   1
    33     5    32   1
    34     6    33   1
    35    11    34   1
    36    11    35   1
    37    13    36   1
    38    14    37   1
    39    14    38   1
    40    14    39   1
    41    17    40   1
    42    19    41   1
    43    20    42   1
    44    21    43   1
@<TRIPOS>SUBSTRUCTURE
     1  MOL      1

