@<TRIPOS>MOLECULE
1z95_ligand_055
    43    44
SMALL
GAST_HUCK
****
This file was generated by PARSER (from files_GN.cpp)

@<TRIPOS>ATOM
      1 C16        28.6196    1.2112    7.1477 C.ar        1 MOL      -0.0388
      2 C17        29.1607    0.7273    5.9415 C.ar        1 MOL      -0.0264
      3 C18        30.3395   -0.0401    5.9501 C.ar        1 MOL       0.1325
      4 F18        30.8449   -0.4878    4.8306 F           1 MOL      -0.1834
      5 C19        30.9883   -0.3147    7.1675 C.ar        1 MOL      -0.0264
      6 C20        30.4541    0.1795    8.3705 C.ar        1 MOL      -0.0388
      7 C15        29.2572    0.9243    8.3781 C.ar        1 MOL       0.0840
      8 S14        28.6279    1.5124    9.8977 S.o2        1 MOL      -0.0030
      9 O14        29.6437    2.6443   10.3593 O.2         1 MOL      -0.1699
     10 O15        27.2052    2.2218    9.7539 O.2         1 MOL      -0.1699
     11 C13        28.5101    0.1470   11.0909 C.3         1 MOL       0.1063
     12 C11        28.8555    0.4879   12.5806 C.3         1 MOL       0.1678
     13 O11        27.6650    1.0659   13.1476 O.3         1 MOL      -0.3823
     14 C12        29.1600   -0.8262   13.3633 C.3         1 MOL      -0.0271
     15 C10        30.0071    1.3766   12.7104 C.2         1 MOL       0.2588
     16 O10        30.9433    1.1838   11.9320 O.2         1 MOL      -0.3300
     17 N9         30.0480    2.3231   13.6513 N.am        1 MOL      -0.2188
     18 C1         30.9944    3.2634   13.9438 C.ar        1 MOL       0.1074
     19 C2         32.2333    3.4512   13.2850 C.ar        1 MOL       0.0010
     20 C6         30.6868    4.1371   15.0079 C.ar        1 MOL      -0.0005
     21 C5         31.6119    5.0857   15.4716 C.ar        1 MOL      -0.0119
     22 C4         32.8853    5.1927   14.8659 C.ar        1 MOL       0.1068
     23 C8         33.7143    6.0573   15.3947 C.1         1 MOL       0.1050
     24 N8         34.4367    6.8265   15.8626 N.1         1 MOL      -0.3259
     25 C3         33.2178    4.3777   13.7398 C.ar        1 MOL       0.0666
     26 C7         34.5635    4.4429   13.0600 C.3         1 MOL       0.3787
     27 F7B        34.7116    5.6282   12.3898 F           1 MOL      -0.2186
     28 F7C        35.5906    4.3237   13.9614 F           1 MOL      -0.2186
     29 F7A        34.7894    3.4504   12.1436 F           1 MOL      -0.2186
     30 H1         27.7690    1.7718    7.1205 H           1 MOL       0.0626
     31 H2         28.6919    0.9311    5.0582 H           1 MOL       0.0604
     32 H3         31.8428   -0.8698    7.1828 H           1 MOL       0.0604
     33 H4         30.9587   -0.0124    9.2372 H           1 MOL       0.0626
     34 H5         29.1714   -0.6506   10.7567 H           1 MOL       0.0518
     35 H6         27.4950   -0.2513   11.0368 H           1 MOL       0.0518
     36 H7         27.0734    0.3035   13.3445 H           1 MOL       0.2079
     37 H8         29.3644   -0.6112   14.4148 H           1 MOL       0.0244
     38 H9         30.0292   -1.3288   12.9345 H           1 MOL       0.0244
     39 H10        28.3147   -1.5128   13.3120 H           1 MOL       0.0244
     40 H11        29.3167    2.2868   14.2873 H           1 MOL       0.2319
     41 H12        32.4405    2.9091   12.4513 H           1 MOL       0.0781
     42 H13        29.7782    4.0702   15.4683 H           1 MOL       0.0767
     43 H14        31.3418    5.6740   16.2682 H           1 MOL       0.0766
@<TRIPOS>BOND
     1     1     2  ar
     2     1     7  ar
     3     2     3  ar
     4     3     4   1
     5     3     5  ar
     6     5     6  ar
     7     6     7  ar
     8     7     8   1
     9     8     9   2
    10     8    10   2
    11     8    11   1
    12    11    12   1
    13    12    13   1
    14    12    14   1
    15    12    15   1
    16    15    16   2
    17    15    17  am
    18    17    18   1
    19    18    19  ar
    20    18    20  ar
    21    19    25  ar
    22    20    21  ar
    23    21    22  ar
    24    22    23   1
    25    22    25  ar
    26    23    24   3
    27    25    26   1
    28    26    27   1
    29    26    28   1
    30    26    29   1
    31     1    30   1
    32     2    31   1
    33     5    32   1
    34     6    33   1
    35    11    34   1
    36    11    35   1
    37    13    36   1
    38    14    37   1
    39    14    38   1
    40    14    39   1
    41    17    40   1
    42    19    41   1
    43    20    42   1
    44    21    43   1
@<TRIPOS>SUBSTRUCTURE
     1  MOL      1

