@<TRIPOS>MOLECULE
1z95_ligand_010
    43    44
SMALL
GAST_HUCK
****
This file was generated by PARSER (from files_GN.cpp)

@<TRIPOS>ATOM
      1 C16        28.4468    4.3747    4.9879 C.ar        1 MOL      -0.0388
      2 C17        29.3736    3.3322    4.7862 C.ar        1 MOL      -0.0264
      3 C18        29.1186    2.3325    3.8348 C.ar        1 MOL       0.1325
      4 F18        29.9536    1.3410    3.6539 F           1 MOL      -0.1834
      5 C19        27.9409    2.3783    3.0754 C.ar        1 MOL      -0.0264
      6 C20        27.0298    3.4382    3.2397 C.ar        1 MOL      -0.0388
      7 C15        27.2626    4.4242    4.2161 C.ar        1 MOL       0.0840
      8 S14        26.0999    5.6921    4.4669 S.o2        1 MOL      -0.0030
      9 O14        26.8594    6.9489    5.0563 O.2         1 MOL      -0.1699
     10 O15        25.4633    6.2049    3.0961 O.2         1 MOL      -0.1699
     11 C13        24.8436    5.2154    5.6848 C.3         1 MOL       0.1063
     12 C11        23.8420    4.0619    5.3272 C.3         1 MOL       0.1678
     13 O11        23.1340    3.7304    6.5282 O.3         1 MOL      -0.3823
     14 C12        22.7336    4.5800    4.3604 C.3         1 MOL      -0.0271
     15 C10        24.5041    2.8260    4.8766 C.2         1 MOL       0.2588
     16 O10        24.2590    2.3943    3.7463 O.2         1 MOL      -0.3300
     17 N9         25.4009    2.2332    5.6454 N.am        1 MOL      -0.2188
     18 C1         26.2420    1.1763    5.3908 C.ar        1 MOL       0.1074
     19 C2         27.4800    1.1821    6.0749 C.ar        1 MOL       0.0010
     20 C6         25.9864    0.1127    4.5002 C.ar        1 MOL      -0.0005
     21 C5         26.9632   -0.8600    4.2392 C.ar        1 MOL      -0.0119
     22 C4         28.2212   -0.8054    4.8789 C.ar        1 MOL       0.1068
     23 C8         29.1024   -1.7180    4.5487 C.1         1 MOL       0.1050
     24 N8         29.8744   -2.5079    4.2467 N.1         1 MOL      -0.3259
     25 C3         28.4907    0.2188    5.8331 C.ar        1 MOL       0.0666
     26 C7         29.7970    0.3003    6.5689 C.3         1 MOL       0.3787
     27 F7B        29.9441   -0.8111    7.3618 F           1 MOL      -0.2186
     28 F7C        30.8493    0.3549    5.6864 F           1 MOL      -0.2186
     29 F7A        29.9474    1.4010    7.3823 F           1 MOL      -0.2186
     30 H1         28.6451    5.0902    5.6879 H           1 MOL       0.0626
     31 H2         30.2381    3.3182    5.3336 H           1 MOL       0.0604
     32 H3         27.7437    1.6511    2.3901 H           1 MOL       0.0604
     33 H4         26.1806    3.4526    2.6717 H           1 MOL       0.0626
     34 H5         24.2746    6.1191    5.9256 H           1 MOL       0.0518
     35 H6         25.3939    4.9361    6.5825 H           1 MOL       0.0518
     36 H7         23.7916    3.7364    7.2559 H           1 MOL       0.2079
     37 H8         21.9796    3.8068    4.1874 H           1 MOL       0.0244
     38 H9         23.1531    4.8585    3.3939 H           1 MOL       0.0244
     39 H10        22.2271    5.4511    4.7813 H           1 MOL       0.0244
     40 H11        25.5806    2.6878    6.4859 H           1 MOL       0.2319
     41 H12        27.6499    1.9335    6.7477 H           1 MOL       0.0781
     42 H13        25.0874    0.0330    4.0264 H           1 MOL       0.0767
     43 H14        26.7428   -1.6123    3.5790 H           1 MOL       0.0766
@<TRIPOS>BOND
     1     1     2  ar
     2     1     7  ar
     3     2     3  ar
     4     3     4   1
     5     3     5  ar
     6     5     6  ar
     7     6     7  ar
     8     7     8   1
     9     8     9   2
    10     8    10   2
    11     8    11   1
    12    11    12   1
    13    12    13   1
    14    12    14   1
    15    12    15   1
    16    15    16   2
    17    15    17  am
    18    17    18   1
    19    18    19  ar
    20    18    20  ar
    21    19    25  ar
    22    20    21  ar
    23    21    22  ar
    24    22    23   1
    25    22    25  ar
    26    23    24   3
    27    25    26   1
    28    26    27   1
    29    26    28   1
    30    26    29   1
    31     1    30   1
    32     2    31   1
    33     5    32   1
    34     6    33   1
    35    11    34   1
    36    11    35   1
    37    13    36   1
    38    14    37   1
    39    14    38   1
    40    14    39   1
    41    17    40   1
    42    19    41   1
    43    20    42   1
    44    21    43   1
@<TRIPOS>SUBSTRUCTURE
     1  MOL      1

