@<TRIPOS>MOLECULE
1z95_ligand_041
    43    44
SMALL
GAST_HUCK
****
This file was generated by PARSER (from files_GN.cpp)

@<TRIPOS>ATOM
      1 C16        27.8324   -0.5204    5.8591 C.ar        1 MOL      -0.0388
      2 C17        26.5403   -0.8207    5.3914 C.ar        1 MOL      -0.0264
      3 C18        26.3780   -1.6558    4.2721 C.ar        1 MOL       0.1325
      4 F18        25.1826   -1.9298    3.8346 F           1 MOL      -0.1834
      5 C19        27.5061   -2.1852    3.6186 C.ar        1 MOL      -0.0264
      6 C20        28.7978   -1.8971    4.0941 C.ar        1 MOL      -0.0388
      7 C15        28.9685   -1.0658    5.2210 C.ar        1 MOL       0.0840
      8 S14        30.5568   -0.6947    5.8299 S.o2        1 MOL      -0.0030
      9 O14        30.5677   -1.0433    7.3811 O.2         1 MOL      -0.1699
     10 O15        31.6735   -1.5959    5.1435 O.2         1 MOL      -0.1699
     11 C13        30.9034    1.0569    5.5245 C.3         1 MOL       0.1063
     12 C11        31.4929    1.8527    6.7321 C.3         1 MOL       0.1678
     13 O11        32.7510    1.2562    7.0817 O.3         1 MOL      -0.3823
     14 C12        31.7927    3.3080    6.2819 C.3         1 MOL      -0.0271
     15 C10        30.5716    1.8641    7.8750 C.2         1 MOL       0.2588
     16 O10        29.4437    2.3212    7.7166 O.2         1 MOL      -0.3300
     17 N9         30.9355    1.3845    9.0608 N.am        1 MOL      -0.2188
     18 C1         30.1357    1.2225   10.1518 C.ar        1 MOL       0.1074
     19 C2         30.5180    1.7855   11.3842 C.ar        1 MOL       0.0010
     20 C6         28.9694    0.4379   10.0891 C.ar        1 MOL      -0.0005
     21 C5         28.1835    0.2379   11.2337 C.ar        1 MOL      -0.0119
     22 C4         28.5499    0.8302   12.4630 C.ar        1 MOL       0.1068
     23 C8         27.7694    0.6160   13.4905 C.1         1 MOL       0.1050
     24 N8         27.0774    0.4373   14.3900 N.1         1 MOL      -0.3259
     25 C3         29.7299    1.6285   12.5545 C.ar        1 MOL       0.0666
     26 C7         30.1471    2.2855   13.8354 C.3         1 MOL       0.3787
     27 F7B        29.1654    3.1354   14.2789 F           1 MOL      -0.2186
     28 F7C        30.3717    1.3383   14.8034 F           1 MOL      -0.2186
     29 F7A        31.2894    3.0447   13.7592 F           1 MOL      -0.2186
     30 H1         27.9364    0.0979    6.6663 H           1 MOL       0.0626
     31 H2         25.7206   -0.4272    5.8597 H           1 MOL       0.0604
     32 H3         27.3896   -2.7752    2.7930 H           1 MOL       0.0604
     33 H4         29.6052   -2.2965    3.6102 H           1 MOL       0.0626
     34 H5         29.9781    1.5321    5.1910 H           1 MOL       0.0518
     35 H6         31.5986    1.1005    4.6839 H           1 MOL       0.0518
     36 H7         33.3064    1.2978    6.2731 H           1 MOL       0.2079
     37 H8         32.2235    3.8865    7.1001 H           1 MOL       0.0244
     38 H9         30.8797    3.8004    5.9398 H           1 MOL       0.0244
     39 H10        32.5037    3.3108    5.4574 H           1 MOL       0.0244
     40 H11        31.8711    1.1498    9.1768 H           1 MOL       0.2319
     41 H12        31.3730    2.3434   11.4114 H           1 MOL       0.0781
     42 H13        28.7027   -0.0118    9.2111 H           1 MOL       0.0767
     43 H14        27.3465   -0.3509   11.1544 H           1 MOL       0.0766
@<TRIPOS>BOND
     1     1     2  ar
     2     1     7  ar
     3     2     3  ar
     4     3     4   1
     5     3     5  ar
     6     5     6  ar
     7     6     7  ar
     8     7     8   1
     9     8     9   2
    10     8    10   2
    11     8    11   1
    12    11    12   1
    13    12    13   1
    14    12    14   1
    15    12    15   1
    16    15    16   2
    17    15    17  am
    18    17    18   1
    19    18    19  ar
    20    18    20  ar
    21    19    25  ar
    22    20    21  ar
    23    21    22  ar
    24    22    23   1
    25    22    25  ar
    26    23    24   3
    27    25    26   1
    28    26    27   1
    29    26    28   1
    30    26    29   1
    31     1    30   1
    32     2    31   1
    33     5    32   1
    34     6    33   1
    35    11    34   1
    36    11    35   1
    37    13    36   1
    38    14    37   1
    39    14    38   1
    40    14    39   1
    41    17    40   1
    42    19    41   1
    43    20    42   1
    44    21    43   1
@<TRIPOS>SUBSTRUCTURE
     1  MOL      1

