@<TRIPOS>MOLECULE
1z95_ligand_033
    43    44
SMALL
GAST_HUCK
****
This file was generated by PARSER (from files_GN.cpp)

@<TRIPOS>ATOM
      1 C16        30.4749    0.2752    5.5879 C.ar        1 MOL      -0.0388
      2 C17        31.6735   -0.3184    6.0271 C.ar        1 MOL      -0.0264
      3 C18        32.7854    0.4870    6.3401 C.ar        1 MOL       0.1325
      4 F18        33.8895   -0.0636    6.7720 F           1 MOL      -0.1834
      5 C19        32.7014    1.8857    6.1913 C.ar        1 MOL      -0.0264
      6 C20        31.5056    2.4751    5.7405 C.ar        1 MOL      -0.0388
      7 C15        30.3727    1.6781    5.4537 C.ar        1 MOL       0.0840
      8 S14        28.8683    2.3898    4.9199 S.o2        1 MOL      -0.0030
      9 O14        28.8024    2.1092    3.3532 O.2         1 MOL      -0.1699
     10 O15        27.6460    1.5852    5.5369 O.2         1 MOL      -0.1699
     11 C13        28.7147    4.1853    5.1876 C.3         1 MOL       0.1063
     12 C11        27.3285    4.8769    4.9134 C.3         1 MOL       0.1678
     13 O11        26.5279    4.7719    6.1045 O.3         1 MOL      -0.3823
     14 C12        27.5356    6.4144    4.7311 C.3         1 MOL      -0.0271
     15 C10        26.6255    4.2769    3.7688 C.2         1 MOL       0.2588
     16 O10        27.0489    4.5005    2.6426 O.2         1 MOL      -0.3300
     17 N9         25.6975    3.3510    4.0085 N.am        1 MOL      -0.2188
     18 C1         25.0924    2.4071    3.2303 C.ar        1 MOL       0.1074
     19 C2         25.2961    2.1806    1.8484 C.ar        1 MOL       0.0010
     20 C6         24.2075    1.5593    3.9211 C.ar        1 MOL      -0.0005
     21 C5         23.5448    0.5177    3.2608 C.ar        1 MOL      -0.0119
     22 C4         23.7459    0.3055    1.8806 C.ar        1 MOL       0.1068
     23 C8         23.1035   -0.6955    1.3435 C.1         1 MOL       0.1050
     24 N8         22.5358   -1.5799    0.8838 N.1         1 MOL      -0.3259
     25 C3         24.6143    1.1581    1.1382 C.ar        1 MOL       0.0666
     26 C7         24.8094    1.0080   -0.3431 C.3         1 MOL       0.3787
     27 F7B        25.4311   -0.1821   -0.6191 F           1 MOL      -0.2186
     28 F7C        23.6036    1.0216   -1.0025 F           1 MOL      -0.2186
     29 F7A        25.5621    1.9927   -0.9414 F           1 MOL      -0.2186
     30 H1         29.6814   -0.3313    5.3707 H           1 MOL       0.0626
     31 H2         31.7398   -1.3344    6.1195 H           1 MOL       0.0604
     32 H3         33.5117    2.4782    6.4068 H           1 MOL       0.0604
     33 H4         31.4713    3.4901    5.6260 H           1 MOL       0.0626
     34 H5         29.4773    4.6458    4.5578 H           1 MOL       0.0518
     35 H6         28.9987    4.3774    6.2243 H           1 MOL       0.0518
     36 H7         26.4601    3.8161    6.3139 H           1 MOL       0.2079
     37 H8         26.5834    6.9261    4.5769 H           1 MOL       0.0244
     38 H9         28.1778    6.6189    3.8730 H           1 MOL       0.0244
     39 H10        28.0125    6.8468    5.6129 H           1 MOL       0.0244
     40 H11        25.4358    3.2880    4.9368 H           1 MOL       0.2319
     41 H12        25.9399    2.7833    1.3455 H           1 MOL       0.0781
     42 H13        24.0446    1.6829    4.9264 H           1 MOL       0.0767
     43 H14        22.9168   -0.0791    3.8074 H           1 MOL       0.0766
@<TRIPOS>BOND
     1     1     2  ar
     2     1     7  ar
     3     2     3  ar
     4     3     4   1
     5     3     5  ar
     6     5     6  ar
     7     6     7  ar
     8     7     8   1
     9     8     9   2
    10     8    10   2
    11     8    11   1
    12    11    12   1
    13    12    13   1
    14    12    14   1
    15    12    15   1
    16    15    16   2
    17    15    17  am
    18    17    18   1
    19    18    19  ar
    20    18    20  ar
    21    19    25  ar
    22    20    21  ar
    23    21    22  ar
    24    22    23   1
    25    22    25  ar
    26    23    24   3
    27    25    26   1
    28    26    27   1
    29    26    28   1
    30    26    29   1
    31     1    30   1
    32     2    31   1
    33     5    32   1
    34     6    33   1
    35    11    34   1
    36    11    35   1
    37    13    36   1
    38    14    37   1
    39    14    38   1
    40    14    39   1
    41    17    40   1
    42    19    41   1
    43    20    42   1
    44    21    43   1
@<TRIPOS>SUBSTRUCTURE
     1  MOL      1

