@<TRIPOS>MOLECULE
1z95_ligand_037
    43    44
SMALL
GAST_HUCK
****
This file was generated by PARSER (from files_GN.cpp)

@<TRIPOS>ATOM
      1 C16        28.9875    4.3040    5.5619 C.ar        1 MOL      -0.0388
      2 C17        29.6359    3.3312    6.3477 C.ar        1 MOL      -0.0264
      3 C18        29.8541    2.0401    5.8323 C.ar        1 MOL       0.1325
      4 F18        30.4448    1.1332    6.5618 F           1 MOL      -0.1834
      5 C19        29.4421    1.7359    4.5208 C.ar        1 MOL      -0.0264
      6 C20        28.7848    2.7048    3.7398 C.ar        1 MOL      -0.0388
      7 C15        28.5412    3.9956    4.2571 C.ar        1 MOL       0.0840
      8 S14        27.7126    5.1808    3.2743 S.o2        1 MOL      -0.0030
      9 O14        28.8177    5.7400    2.2784 O.2         1 MOL      -0.1699
     10 O15        26.6450    4.4820    2.3232 O.2         1 MOL      -0.1699
     11 C13        26.9403    6.5860    4.1341 C.3         1 MOL       0.1063
     12 C11        25.4635    6.4575    4.6983 C.3         1 MOL       0.1678
     13 O11        25.4457    6.9348    6.0456 O.3         1 MOL      -0.3823
     14 C12        24.5328    7.4393    3.9198 C.3         1 MOL      -0.0271
     15 C10        24.9054    5.0968    4.7609 C.2         1 MOL       0.2588
     16 O10        23.7803    4.8756    4.3287 O.2         1 MOL      -0.3300
     17 N9         25.5907    4.1054    5.3268 N.am        1 MOL      -0.2188
     18 C1         25.4837    2.7543    5.1098 C.ar        1 MOL       0.1074
     19 C2         24.7581    2.1670    4.0408 C.ar        1 MOL       0.0010
     20 C6         26.2878    1.9224    5.9046 C.ar        1 MOL      -0.0005
     21 C5         26.4138    0.5568    5.6147 C.ar        1 MOL      -0.0119
     22 C4         25.6990   -0.0166    4.5415 C.ar        1 MOL       0.1068
     23 C8         25.8995   -1.2867    4.3178 C.1         1 MOL       0.1050
     24 N8         26.0942   -2.4050    4.1285 N.1         1 MOL      -0.3259
     25 C3         24.8184    0.7825    3.7538 C.ar        1 MOL       0.0666
     26 C7         24.0083    0.2275    2.6229 C.3         1 MOL       0.3787
     27 F7B        24.8476   -0.2193    1.6389 F           1 MOL      -0.2186
     28 F7C        23.2163   -0.8100    3.0482 F           1 MOL      -0.2186
     29 F7A        23.1506    1.1085    2.0036 F           1 MOL      -0.2186
     30 H1         28.8584    5.2351    5.9532 H           1 MOL       0.0626
     31 H2         29.9467    3.5690    7.2944 H           1 MOL       0.0604
     32 H3         29.6109    0.7993    4.1356 H           1 MOL       0.0604
     33 H4         28.4897    2.4590    2.7930 H           1 MOL       0.0626
     34 H5         26.9896    7.4028    3.4117 H           1 MOL       0.0518
     35 H6         27.6131    6.8871    4.9366 H           1 MOL       0.0518
     36 H7         26.0863    6.3757    6.5288 H           1 MOL       0.2079
     37 H8         23.5338    7.4619    4.3578 H           1 MOL       0.0244
     38 H9         24.4440    7.1417    2.8694 H           1 MOL       0.0244
     39 H10        24.9387    8.4520    3.9576 H           1 MOL       0.0244
     40 H11        26.3702    4.3763    5.8375 H           1 MOL       0.2319
     41 H12        24.2175    2.7644    3.4207 H           1 MOL       0.0781
     42 H13        26.8289    2.3161    6.6742 H           1 MOL       0.0767
     43 H14        27.0520   -0.0070    6.1880 H           1 MOL       0.0766
@<TRIPOS>BOND
     1     1     2  ar
     2     1     7  ar
     3     2     3  ar
     4     3     4   1
     5     3     5  ar
     6     5     6  ar
     7     6     7  ar
     8     7     8   1
     9     8     9   2
    10     8    10   2
    11     8    11   1
    12    11    12   1
    13    12    13   1
    14    12    14   1
    15    12    15   1
    16    15    16   2
    17    15    17  am
    18    17    18   1
    19    18    19  ar
    20    18    20  ar
    21    19    25  ar
    22    20    21  ar
    23    21    22  ar
    24    22    23   1
    25    22    25  ar
    26    23    24   3
    27    25    26   1
    28    26    27   1
    29    26    28   1
    30    26    29   1
    31     1    30   1
    32     2    31   1
    33     5    32   1
    34     6    33   1
    35    11    34   1
    36    11    35   1
    37    13    36   1
    38    14    37   1
    39    14    38   1
    40    14    39   1
    41    17    40   1
    42    19    41   1
    43    20    42   1
    44    21    43   1
@<TRIPOS>SUBSTRUCTURE
     1  MOL      1

