@<TRIPOS>MOLECULE
1z95_ligand_002
    43    44
SMALL
GAST_HUCK
****
This file was generated by PARSER (from files_GN.cpp)

@<TRIPOS>ATOM
      1 C16        24.5283    1.7147    5.4061 C.ar        1 MOL      -0.0388
      2 C17        25.0519    0.4345    5.1469 C.ar        1 MOL      -0.0264
      3 C18        25.7858    0.1931    3.9700 C.ar        1 MOL       0.1325
      4 F18        26.2998   -0.9904    3.7572 F           1 MOL      -0.1834
      5 C19        25.9608    1.2273    3.0295 C.ar        1 MOL      -0.0264
      6 C20        25.4317    2.5082    3.2892 C.ar        1 MOL      -0.0388
      7 C15        24.7421    2.7739    4.4916 C.ar        1 MOL       0.0840
      8 S14        24.1264    4.3771    4.8073 S.o2        1 MOL      -0.0030
      9 O14        23.0416    4.7308    3.6962 O.2         1 MOL      -0.1699
     10 O15        23.2894    4.3881    6.1643 O.2         1 MOL      -0.1699
     11 C13        25.3264    5.7387    4.8919 C.3         1 MOL       0.1063
     12 C11        26.7458    5.5115    4.2732 C.3         1 MOL       0.1678
     13 O11        26.5726    5.4229    2.8510 O.3         1 MOL      -0.3823
     14 C12        27.6686    6.7326    4.5686 C.3         1 MOL      -0.0271
     15 C10        27.4142    4.3038    4.7605 C.2         1 MOL       0.2588
     16 O10        27.0513    3.8078    5.8211 O.2         1 MOL      -0.3300
     17 N9         28.4193    3.7692    4.0689 N.am        1 MOL      -0.2188
     18 C1         29.1127    2.6411    4.3785 C.ar        1 MOL       0.1074
     19 C2         29.0389    1.5568    3.4838 C.ar        1 MOL       0.0010
     20 C6         29.8969    2.5170    5.5460 C.ar        1 MOL      -0.0005
     21 C5         30.5762    1.3189    5.8149 C.ar        1 MOL      -0.0119
     22 C4         30.4648    0.2173    4.9387 C.ar        1 MOL       0.1068
     23 C8         31.0951   -0.8750    5.2702 C.1         1 MOL       0.1050
     24 N8         31.6564   -1.8348    5.5520 N.1         1 MOL      -0.3259
     25 C3         29.6777    0.3175    3.7549 C.ar        1 MOL       0.0666
     26 C7         29.5017   -0.8399    2.8160 C.3         1 MOL       0.3787
     27 F7B        30.7175   -1.2121    2.2906 F           1 MOL      -0.2186
     28 F7C        28.9677   -1.9120    3.4926 F           1 MOL      -0.2186
     29 F7A        28.6643   -0.6139    1.7458 F           1 MOL      -0.2186
     30 H1         23.9894    1.8682    6.2610 H           1 MOL       0.0626
     31 H2         24.9094   -0.3215    5.8200 H           1 MOL       0.0604
     32 H3         26.4830    1.0561    2.1642 H           1 MOL       0.0604
     33 H4         25.5666    3.2445    2.5928 H           1 MOL       0.0626
     34 H5         25.4297    6.0146    5.9428 H           1 MOL       0.0518
     35 H6         24.8502    6.5908    4.3898 H           1 MOL       0.0518
     36 H7         26.1951    6.2817    2.5748 H           1 MOL       0.2079
     37 H8         28.6590    6.5860    4.1297 H           1 MOL       0.0244
     38 H9         27.7915    6.8819    5.6465 H           1 MOL       0.0244
     39 H10        27.2363    7.6383    4.1418 H           1 MOL       0.0244
     40 H11        28.5910    4.1520    3.1945 H           1 MOL       0.2319
     41 H12        28.4643    1.6676    2.6436 H           1 MOL       0.0781
     42 H13        29.9895    3.3036    6.1999 H           1 MOL       0.0767
     43 H14        31.1403    1.2583    6.6702 H           1 MOL       0.0766
@<TRIPOS>BOND
     1     1     2  ar
     2     1     7  ar
     3     2     3  ar
     4     3     4   1
     5     3     5  ar
     6     5     6  ar
     7     6     7  ar
     8     7     8   1
     9     8     9   2
    10     8    10   2
    11     8    11   1
    12    11    12   1
    13    12    13   1
    14    12    14   1
    15    12    15   1
    16    15    16   2
    17    15    17  am
    18    17    18   1
    19    18    19  ar
    20    18    20  ar
    21    19    25  ar
    22    20    21  ar
    23    21    22  ar
    24    22    23   1
    25    22    25  ar
    26    23    24   3
    27    25    26   1
    28    26    27   1
    29    26    28   1
    30    26    29   1
    31     1    30   1
    32     2    31   1
    33     5    32   1
    34     6    33   1
    35    11    34   1
    36    11    35   1
    37    13    36   1
    38    14    37   1
    39    14    38   1
    40    14    39   1
    41    17    40   1
    42    19    41   1
    43    20    42   1
    44    21    43   1
@<TRIPOS>SUBSTRUCTURE
     1  MOL      1

