@<TRIPOS>MOLECULE
1zea_ligand_002
   129   131
SMALL
GAST_HUCK
****
This file was generated by PARSER (from files_GN.cpp)

@<TRIPOS>ATOM
      1 N          50.9352   49.9254   77.1491 N.4         1 DVA       0.2381
      2 CA         51.7530   51.0437   77.6615 C.3         1 DVA       0.0675
      3 CB         52.9452   51.4159   76.7078 C.3         1 DVA       0.0139
      4 CG1        53.8376   50.2134   76.2844 C.3         1 DVA      -0.0553
      5 CG2        52.4487   52.1641   75.4384 C.3         1 DVA      -0.0553
      6 C          52.1625   50.7720   79.0487 C.2         1 DVA       0.2295
      7 O          52.8561   49.7738   79.2050 O.2         1 DVA      -0.3905
      8 N          51.8421   51.5091   80.1305 N.am        1 DVA      -0.2471
      9 CA         50.9848   52.6668   80.1515 C.3         1 DVA       0.1339
     10 CB         51.2406   53.3353   81.5254 C.3         1 DVA      -0.0104
     11 CG         51.7287   52.1943   82.4226 C.3         1 DVA      -0.0281
     12 CD         52.3791   51.2136   81.4323 C.3         1 DVA       0.0371
     13 C          49.5763   52.3218   79.9411 C.2         1 DVA       0.2039
     14 O          48.9475   52.9230   79.0788 O.2         1 DVA      -0.3944
     15 N          49.0001   51.3691   80.6710 N.am        1 DVA      -0.2664
     16 CA         47.6318   50.9466   80.6283 C.3         1 DVA       0.1201
     17 C          47.0095   51.0446   81.9342 C.2         1 DVA       0.2008
     18 O          47.4072   51.9001   82.7228 O.2         1 DVA      -0.3947
     19 N          45.9703   50.2772   82.2367 N.am        1 DVA      -0.2618
     20 CA         45.2817   50.2449   83.4990 C.3         1 DVA       0.1539
     21 C          44.0327   50.9944   83.4053 C.2         1 DVA       0.2062
     22 O          43.1122   50.5491   82.7226 O.2         1 DVA      -0.3943
     23 CB         45.0748   48.7868   83.9893 C.3         1 DVA       0.0843
     24 OG         44.1676   48.0323   83.1837 O.3         1 DVA      -0.3903
     25 N          43.9074   52.1411   84.0542 N.am        1 DVA      -0.2635
     26 CA         42.7043   52.8979   84.2760 C.3         1 DVA       0.1330
     27 C          42.8141   53.4326   85.6309 C.2         1 DVA       0.2041
     28 O          43.3218   54.5458   85.7926 O.2         1 DVA      -0.3944
     29 CB         42.5133   54.0227   83.1938 C.3         1 DVA       0.0045
     30 CG         41.4756   53.7090   82.0734 C.3         1 DVA       0.0412
     31 CD         40.0964   54.0647   82.3937 C.2         1 DVA       0.1737
     32 OE1        39.4459   54.7814   81.6450 O.2         1 DVA      -0.3973
     33 NE2        39.4815   53.6270   83.4711 N.am        1 DVA      -0.3009
     34 N          42.4467   52.7009   86.6733 N.am        1 DVA      -0.2625
     35 CA         42.5384   53.0869   88.0558 C.3         1 DVA       0.1369
     36 C          41.6304   54.1953   88.3698 C.2         1 DVA       0.2055
     37 O          40.7585   54.5413   87.5808 O.2         1 DVA      -0.3942
     38 CB         42.2739   51.8475   88.9614 C.3         1 DVA       0.0145
     39 CG         42.9636   51.9172   90.2652 C.2         1 DVA      -0.0027
     40 ND1        42.4033   52.2983   91.4270 N.2         1 DVA      -0.3252
     41 CD2        44.3105   51.6569   90.5089 C.2         1 DVA       0.0291
     42 CE1        43.3742   52.2806   92.3603 C.2         1 DVA       0.0907
     43 NE2        44.5321   51.8927   91.8060 N.pl3       1 DVA      -0.2752
     44 N          41.7449   54.8208   89.5353 N.am        1 DVA      -0.2620
     45 CA         40.9412   55.9191   90.0170 C.3         1 DVA       0.1390
     46 C          41.3059   56.2223   91.4017 C.2         1 DVA       0.2058
     47 O          42.4779   56.4630   91.6902 O.2         1 DVA      -0.3942
     48 CB         40.9831   57.1803   89.0842 C.3         1 DVA       0.0163
     49 CG         42.3232   57.5426   88.5330 C.ar        1 DVA      -0.0493
     50 CD1        42.6578   57.2541   87.1879 C.ar        1 DVA      -0.0685
     51 CD2        43.2867   58.2112   89.3289 C.ar        1 DVA      -0.0685
     52 CE1        43.9363   57.5591   86.6778 C.ar        1 DVA      -0.0398
     53 CE2        44.5645   58.5225   88.8207 C.ar        1 DVA      -0.0398
     54 CZ         44.8967   58.1859   87.4989 C.ar        1 DVA       0.0805
     55 OH         46.1258   58.4857   87.0125 O.3         1 DVA      -0.3376
     56 N          40.3548   56.2809   92.3259 N.am        1 DVA      -0.2620
     57 CA         40.5149   56.5737   93.7297 C.3         1 DVA       0.1423
     58 C          39.9169   57.8587   94.0844 C.2         1 DVA       0.2051
     59 O          39.2705   57.9161   95.1307 O.2         1 DVA      -0.3943
     60 CB         39.9692   55.3783   94.5561 C.3         1 DVA       0.0406
     61 CG         38.5288   55.1285   94.3742 C.2         1 DVA       0.0393
     62 OD1        37.6364   55.6599   95.2402 O.co2       1 DVA      -0.5688
     63 OD2        38.0825   54.2285   93.4633 O.co2       1 DVA      -0.5688
     64 N          40.0978   58.9530   93.3397 N.am        1 DVA      -0.2671
     65 CA         39.6904   60.3019   93.5990 C.3         1 DVA       0.1173
     66 C          38.4710   60.3727   94.4333 C.2         1 DVA       0.0623
     67 O          38.5223   60.3101   95.7852 O.co2       1 DVA      -0.5665
     68 OXT        37.2539   60.5145   93.8599 O.co2       1 DVA      -0.5665
     69 CB         40.8349   61.1788   94.1577 C.3         1 DVA       0.0789
     70 OG         41.8007   61.4461   93.1387 O.3         1 DVA      -0.3910
     71 H1         50.5959   50.1530   76.2133 H           1 DVA       0.2015
     72 H2         50.1432   49.7612   77.7738 H           1 DVA       0.2015
     73 H3         51.4856   49.0739   77.0968 H           1 DVA       0.2015
     74 H4         51.0700   51.8963   77.6504 H           1 DVA       0.1101
     75 H5         53.5864   52.1172   77.2410 H           1 DVA       0.0376
     76 H6         54.6462   50.5503   75.6325 H           1 DVA       0.0236
     77 H7         53.2529   49.4630   75.7416 H           1 DVA       0.0236
     78 H8         54.2962   49.7359   77.1509 H           1 DVA       0.0236
     79 H9         51.8897   53.0606   75.7153 H           1 DVA       0.0236
     80 H10        51.7984   51.5245   74.8327 H           1 DVA       0.0236
     81 H11        53.2936   52.4784   74.8223 H           1 DVA       0.0236
     82 H12        51.3168   53.3832   79.3901 H           1 DVA       0.0802
     83 H13        50.3562   53.8289   81.9421 H           1 DVA       0.0313
     84 H14        52.0364   54.0806   81.4338 H           1 DVA       0.0313
     85 H15        50.8789   51.7272   82.9272 H           1 DVA       0.0287
     86 H16        52.4387   52.5454   83.1766 H           1 DVA       0.0287
     87 H17        53.4655   51.3533   81.4267 H           1 DVA       0.0524
     88 H18        52.1548   50.1840   81.7314 H           1 DVA       0.0524
     89 H19        49.5568   50.9236   81.3278 H           1 DVA       0.1881
     90 H20        47.6301   49.9067   80.2980 H           1 DVA       0.0763
     91 H21        47.0285   51.5197   79.9191 H           1 DVA       0.0763
     92 H22        45.6537   49.6663   81.5492 H           1 DVA       0.1884
     93 H23        45.9095   50.7105   84.2723 H           1 DVA       0.0823
     94 H24        44.6853   48.7943   85.0105 H           1 DVA       0.0606
     95 H25        46.0371   48.2791   84.0034 H           1 DVA       0.0606
     96 H26        44.5866   47.9758   82.2970 H           1 DVA       0.2097
     97 H27        44.7050   52.4758   84.4998 H           1 DVA       0.1883
     98 H28        41.8366   52.2278   84.2428 H           1 DVA       0.0801
     99 H29        43.4856   54.2062   82.7126 H           1 DVA       0.0337
    100 H30        42.2221   54.9712   83.6621 H           1 DVA       0.0337
    101 H31        41.5094   52.6480   81.8115 H           1 DVA       0.0504
    102 H32        41.7762   54.2638   81.1734 H           1 DVA       0.0504
    103 H33        38.5584   53.8963   83.6403 H           1 DVA       0.1814
    104 H34        39.9425   53.0577   84.1108 H           1 DVA       0.1814
    105 H35        42.1149   51.8006   86.4874 H           1 DVA       0.1885
    106 H36        43.5748   53.4133   88.2398 H           1 DVA       0.0817
    107 H37        42.6227   50.9401   88.4590 H           1 DVA       0.0420
    108 H38        41.1985   51.7281   89.1319 H           1 DVA       0.0420
    109 H39        45.0080   51.3596   89.8236 H           1 DVA       0.0729
    110 H40        43.2456   52.5346   93.3385 H           1 DVA       0.1199
    111 H41        45.3821   51.8103   92.2621 H           1 DVA       0.2361
    112 H42        42.4395   54.5011   90.1339 H           1 DVA       0.1885
    113 H43        39.9023   55.5670   90.0121 H           1 DVA       0.0821
    114 H44        40.5727   58.0503   89.6116 H           1 DVA       0.0453
    115 H45        40.3030   56.9946   88.2507 H           1 DVA       0.0453
    116 H46        41.9895   56.7904   86.5703 H           1 DVA       0.0530
    117 H47        43.0615   58.4729   90.2905 H           1 DVA       0.0530
    118 H48        44.1719   57.3200   85.7075 H           1 DVA       0.0525
    119 H49        45.2389   58.9955   89.4163 H           1 DVA       0.0525
    120 H50        46.6603   57.6745   87.1858 H           1 DVA       0.2458
    121 H51        39.4313   56.1423   92.0248 H           1 DVA       0.1884
    122 H52        41.5733   56.6726   93.9871 H           1 DVA       0.0819
    123 H53        40.1681   55.5266   95.6203 H           1 DVA       0.0478
    124 H54        40.5207   54.4803   94.2539 H           1 DVA       0.0478
    125 H55        40.6147   58.8333   92.5221 H           1 DVA       0.1876
    126 H56        39.4366   60.7358   92.6240 H           1 DVA       0.0749
    127 H57        41.3499   60.6837   94.9935 H           1 DVA       0.0599
    128 H58        40.4390   62.1354   94.5168 H           1 DVA       0.0599
    129 H59        42.3374   62.1916   93.4869 H           1 DVA       0.2096
@<TRIPOS>BOND
     1     1     2   1
     2     2     3   1
     3     2     6   1
     4     3     4   1
     5     3     5   1
     6     6     7   2
     7     6     8  am
     8     8     9   1
     9     8    12   1
    10     9    10   1
    11     9    13   1
    12    10    11   1
    13    11    12   1
    14    13    14   2
    15    13    15  am
    16    15    16   1
    17    16    17   1
    18    17    18   2
    19    17    19  am
    20    19    20   1
    21    20    21   1
    22    20    23   1
    23    21    22   2
    24    21    25  am
    25    23    24   1
    26    25    26   1
    27    26    27   1
    28    26    29   1
    29    27    28   2
    30    27    34  am
    31    29    30   1
    32    30    31   1
    33    31    32   2
    34    31    33  am
    35    34    35   1
    36    35    36   1
    37    35    38   1
    38    36    37   2
    39    36    44  am
    40    38    39   1
    41    39    40   1
    42    39    41   2
    43    40    42   2
    44    41    43   1
    45    42    43   1
    46    44    45   1
    47    45    46   1
    48    45    48   1
    49    46    47   2
    50    46    56  am
    51    48    49   1
    52    49    50  ar
    53    49    51  ar
    54    50    52  ar
    55    51    53  ar
    56    52    54  ar
    57    53    54  ar
    58    54    55   1
    59    56    57   1
    60    57    58   1
    61    57    60   1
    62    58    59   2
    63    58    64  am
    64    60    61   1
    65    61    62  ar
    66    61    63  ar
    67    64    65   1
    68    65    66   1
    69    65    69   1
    70    66    67  ar
    71    66    68  ar
    72    69    70   1
    73     1    71   1
    74     1    72   1
    75     1    73   1
    76     2    74   1
    77     3    75   1
    78     4    76   1
    79     4    77   1
    80     4    78   1
    81     5    79   1
    82     5    80   1
    83     5    81   1
    84     9    82   1
    85    10    83   1
    86    10    84   1
    87    11    85   1
    88    11    86   1
    89    12    87   1
    90    12    88   1
    91    15    89   1
    92    16    90   1
    93    16    91   1
    94    19    92   1
    95    20    93   1
    96    23    94   1
    97    23    95   1
    98    24    96   1
    99    25    97   1
   100    26    98   1
   101    29    99   1
   102    29   100   1
   103    30   101   1
   104    30   102   1
   105    33   103   1
   106    33   104   1
   107    34   105   1
   108    35   106   1
   109    38   107   1
   110    38   108   1
   111    41   109   1
   112    42   110   1
   113    43   111   1
   114    44   112   1
   115    45   113   1
   116    48   114   1
   117    48   115   1
   118    50   116   1
   119    51   117   1
   120    52   118   1
   121    53   119   1
   122    55   120   1
   123    56   121   1
   124    57   122   1
   125    60   123   1
   126    60   124   1
   127    64   125   1
   128    65   126   1
   129    69   127   1
   130    69   128   1
   131    70   129   1
@<TRIPOS>SUBSTRUCTURE
     1  DVA      2

