@<TRIPOS>MOLECULE
1zea_ligand_034
   129   131
SMALL
GAST_HUCK
****
This file was generated by PARSER (from files_GN.cpp)

@<TRIPOS>ATOM
      1 N          49.3560   52.3940   83.5704 N.4         1 DVA       0.2381
      2 CA         48.8834   52.4067   84.9707 C.3         1 DVA       0.0675
      3 CB         48.8687   53.8639   85.5540 C.3         1 DVA       0.0139
      4 CG1        47.8907   54.7963   84.7791 C.3         1 DVA      -0.0553
      5 CG2        48.5150   53.9022   87.0719 C.3         1 DVA      -0.0553
      6 C          49.7312   51.4827   85.7387 C.2         1 DVA       0.2295
      7 O          50.9386   51.6373   85.5907 O.2         1 DVA      -0.3905
      8 N          49.3026   50.5249   86.5853 N.am        1 DVA      -0.2471
      9 CA         47.9263   50.2801   86.9603 C.3         1 DVA       0.1339
     10 CB         48.0417   49.4623   88.2745 C.3         1 DVA      -0.0104
     11 CG         49.3651   48.7060   88.1157 C.3         1 DVA      -0.0281
     12 CD         50.2228   49.6935   87.3135 C.3         1 DVA       0.0371
     13 C          47.1072   49.5989   85.9563 C.2         1 DVA       0.2039
     14 O          47.6065   49.2137   84.9030 O.2         1 DVA      -0.3944
     15 N          45.8164   49.4058   86.2071 N.am        1 DVA      -0.2664
     16 CA         44.8753   48.6830   85.4027 C.3         1 DVA       0.1201
     17 C          44.4158   49.3018   84.1720 C.2         1 DVA       0.2008
     18 O          43.6592   48.6466   83.4653 O.2         1 DVA      -0.3947
     19 N          44.7933   50.5268   83.8112 N.am        1 DVA      -0.2618
     20 CA         44.3029   51.2734   82.6875 C.3         1 DVA       0.1539
     21 C          43.0506   51.9326   83.0465 C.2         1 DVA       0.2062
     22 O          42.0746   51.8217   82.3173 O.2         1 DVA      -0.3943
     23 CB         45.3803   52.2901   82.2251 C.3         1 DVA       0.0843
     24 OG         44.9373   53.0047   81.0737 O.3         1 DVA      -0.3903
     25 N          42.9776   52.5958   84.1950 N.am        1 DVA      -0.2635
     26 CA         41.8147   53.1941   84.8012 C.3         1 DVA       0.1330
     27 C          42.1871   53.4579   86.1895 C.2         1 DVA       0.2041
     28 O          42.8431   54.4771   86.4207 O.2         1 DVA      -0.3944
     29 CB         41.3295   54.4811   84.0374 C.3         1 DVA       0.0045
     30 CG         39.8046   54.5477   83.7222 C.3         1 DVA       0.0412
     31 CD         39.3940   53.9701   82.4527 C.2         1 DVA       0.1737
     32 OE1        38.2362   53.5967   82.2950 O.2         1 DVA      -0.3973
     33 NE2        40.1491   54.0435   81.3786 N.am        1 DVA      -0.3009
     34 N          41.9670   52.5659   87.1509 N.am        1 DVA      -0.2625
     35 CA         42.4646   52.6157   88.5023 C.3         1 DVA       0.1369
     36 C          41.3772   52.9190   89.4256 C.2         1 DVA       0.2055
     37 O          40.3758   52.2111   89.4534 O.2         1 DVA      -0.3942
     38 CB         43.2258   51.2896   88.8473 C.3         1 DVA       0.0145
     39 CG         44.5193   51.5412   89.5218 C.2         1 DVA      -0.0027
     40 ND1        44.8520   51.2114   90.7805 N.2         1 DVA      -0.3252
     41 CD2        45.6176   52.1684   88.9406 C.2         1 DVA       0.0291
     42 CE1        46.1164   51.6278   90.9757 C.2         1 DVA       0.0907
     43 NE2        46.5848   52.2131   89.8628 N.pl3       1 DVA      -0.2752
     44 N          41.4777   53.9741   90.2312 N.am        1 DVA      -0.2620
     45 CA         40.4555   54.5779   91.0391 C.3         1 DVA       0.1390
     46 C          40.4039   54.0123   92.3855 C.2         1 DVA       0.2058
     47 O          41.4391   53.6227   92.9152 O.2         1 DVA      -0.3942
     48 CB         40.6858   56.1212   91.0981 C.3         1 DVA       0.0163
     49 CG         40.4311   56.8348   89.8097 C.ar        1 DVA      -0.0493
     50 CD1        39.6292   58.0030   89.7779 C.ar        1 DVA      -0.0685
     51 CD2        41.0001   56.3763   88.6000 C.ar        1 DVA      -0.0685
     52 CE1        39.3567   58.6576   88.5594 C.ar        1 DVA      -0.0398
     53 CE2        40.7146   57.0233   87.3808 C.ar        1 DVA      -0.0398
     54 CZ         39.8758   58.1567   87.3521 C.ar        1 DVA       0.0805
     55 OH         39.5667   58.7777   86.1829 O.3         1 DVA      -0.3376
     56 N          39.2622   54.0690   93.0635 N.am        1 DVA      -0.2620
     57 CA         39.0460   53.6675   94.4281 C.3         1 DVA       0.1423
     58 C          39.6496   54.6397   95.3379 C.2         1 DVA       0.2051
     59 O          40.4638   54.2491   96.1671 O.2         1 DVA      -0.3943
     60 CB         37.5251   53.4935   94.7156 C.3         1 DVA       0.0406
     61 CG         36.8691   52.3590   94.0371 C.2         1 DVA       0.0393
     62 OD1        37.5079   51.5792   93.1371 O.co2       1 DVA      -0.5688
     63 OD2        35.6002   52.0278   94.3643 O.co2       1 DVA      -0.5688
     64 N          39.3199   55.9231   95.2546 N.am        1 DVA      -0.2671
     65 CA         39.8325   57.0009   96.0490 C.3         1 DVA       0.1173
     66 C          41.1650   57.4096   95.5455 C.2         1 DVA       0.0623
     67 O          41.3961   58.6203   94.9859 O.co2       1 DVA      -0.5665
     68 OXT        42.2151   56.5634   95.6402 O.co2       1 DVA      -0.5665
     69 CB         38.7872   58.1498   96.0578 C.3         1 DVA       0.0789
     70 OG         39.1626   59.1857   96.9609 O.3         1 DVA      -0.3910
     71 H1         48.6772   52.8707   82.9709 H           1 DVA       0.2015
     72 H2         49.4695   51.4305   83.2466 H           1 DVA       0.2015
     73 H3         50.2575   52.8729   83.5073 H           1 DVA       0.2015
     74 H4         47.8523   52.0550   84.9345 H           1 DVA       0.1101
     75 H5         49.8718   54.2902   85.4450 H           1 DVA       0.0376
     76 H6         47.8937   55.7996   85.2124 H           1 DVA       0.0236
     77 H7         46.8726   54.4037   84.8186 H           1 DVA       0.0236
     78 H8         48.1909   54.8887   83.7329 H           1 DVA       0.0236
     79 H9         49.2285   53.3108   87.6503 H           1 DVA       0.0236
     80 H10        47.5121   53.5054   87.2385 H           1 DVA       0.0236
     81 H11        48.5519   54.9292   87.4456 H           1 DVA       0.0236
     82 H12        47.4451   51.2331   87.2058 H           1 DVA       0.0802
     83 H13        47.2061   48.7793   88.4557 H           1 DVA       0.0313
     84 H14        48.1178   50.1445   89.1267 H           1 DVA       0.0313
     85 H15        49.2113   47.7876   87.5400 H           1 DVA       0.0287
     86 H16        49.8156   48.4590   89.0802 H           1 DVA       0.0287
     87 H17        50.8239   50.3077   87.9917 H           1 DVA       0.0524
     88 H18        50.8870   49.1474   86.6407 H           1 DVA       0.0524
     89 H19        45.4852   49.7241   87.0640 H           1 DVA       0.1881
     90 H20        43.9943   48.5262   86.0327 H           1 DVA       0.0763
     91 H21        45.2868   47.6982   85.1681 H           1 DVA       0.0763
     92 H22        45.4367   50.9750   84.3835 H           1 DVA       0.1884
     93 H23        44.1369   50.5798   81.8512 H           1 DVA       0.0823
     94 H24        46.3018   51.7578   81.9724 H           1 DVA       0.0606
     95 H25        45.6036   53.0002   83.0271 H           1 DVA       0.0606
     96 H26        45.6771   53.6105   80.8575 H           1 DVA       0.2097
     97 H27        43.7908   52.6087   84.7265 H           1 DVA       0.1883
     98 H28        41.0123   52.4392   84.7919 H           1 DVA       0.0801
     99 H29        41.8949   54.6142   83.1070 H           1 DVA       0.0337
    100 H30        41.5546   55.3791   84.6296 H           1 DVA       0.0337
    101 H31        39.5092   55.6025   83.6923 H           1 DVA       0.0504
    102 H32        39.2487   54.0909   84.5510 H           1 DVA       0.0504
    103 H33        39.8111   53.7209   80.5248 H           1 DVA       0.1814
    104 H34        41.0502   54.4063   81.4386 H           1 DVA       0.1814
    105 H35        41.5132   51.7445   86.8866 H           1 DVA       0.1885
    106 H36        43.1788   53.4429   88.5713 H           1 DVA       0.0817
    107 H37        43.4565   50.7308   87.9340 H           1 DVA       0.0420
    108 H38        42.6036   50.6320   89.4627 H           1 DVA       0.0420
    109 H39        45.6675   52.5452   87.9930 H           1 DVA       0.0729
    110 H40        46.6471   51.5212   91.8401 H           1 DVA       0.1199
    111 H41        47.4650   52.6051   89.7405 H           1 DVA       0.2361
    112 H42        42.3353   54.4342   90.2274 H           1 DVA       0.1885
    113 H43        39.4896   54.4128   90.5565 H           1 DVA       0.0821
    114 H44        41.7123   56.3279   91.4081 H           1 DVA       0.0453
    115 H45        40.0459   56.5414   91.8811 H           1 DVA       0.0453
    116 H46        39.2360   58.3910   90.6356 H           1 DVA       0.0530
    117 H47        41.6255   55.5619   88.6048 H           1 DVA       0.0530
    118 H48        38.7771   59.4977   88.5569 H           1 DVA       0.0525
    119 H49        41.1165   56.6631   86.5117 H           1 DVA       0.0525
    120 H50        40.0650   58.2999   85.4861 H           1 DVA       0.2458
    121 H51        38.5034   54.4433   92.5846 H           1 DVA       0.1884
    122 H52        39.5170   52.6870   94.5690 H           1 DVA       0.0819
    123 H53        36.9951   54.4037   94.4268 H           1 DVA       0.0478
    124 H54        37.3814   53.3514   95.7877 H           1 DVA       0.0478
    125 H55        38.6543   56.1590   94.5867 H           1 DVA       0.1876
    126 H56        39.9445   56.6740   97.0868 H           1 DVA       0.0749
    127 H57        37.8161   57.7650   96.3743 H           1 DVA       0.0599
    128 H58        38.6807   58.5757   95.0581 H           1 DVA       0.0599
    129 H59        38.4521   59.8608   96.8909 H           1 DVA       0.2096
@<TRIPOS>BOND
     1     1     2   1
     2     2     3   1
     3     2     6   1
     4     3     4   1
     5     3     5   1
     6     6     7   2
     7     6     8  am
     8     8     9   1
     9     8    12   1
    10     9    10   1
    11     9    13   1
    12    10    11   1
    13    11    12   1
    14    13    14   2
    15    13    15  am
    16    15    16   1
    17    16    17   1
    18    17    18   2
    19    17    19  am
    20    19    20   1
    21    20    21   1
    22    20    23   1
    23    21    22   2
    24    21    25  am
    25    23    24   1
    26    25    26   1
    27    26    27   1
    28    26    29   1
    29    27    28   2
    30    27    34  am
    31    29    30   1
    32    30    31   1
    33    31    32   2
    34    31    33  am
    35    34    35   1
    36    35    36   1
    37    35    38   1
    38    36    37   2
    39    36    44  am
    40    38    39   1
    41    39    40   1
    42    39    41   2
    43    40    42   2
    44    41    43   1
    45    42    43   1
    46    44    45   1
    47    45    46   1
    48    45    48   1
    49    46    47   2
    50    46    56  am
    51    48    49   1
    52    49    50  ar
    53    49    51  ar
    54    50    52  ar
    55    51    53  ar
    56    52    54  ar
    57    53    54  ar
    58    54    55   1
    59    56    57   1
    60    57    58   1
    61    57    60   1
    62    58    59   2
    63    58    64  am
    64    60    61   1
    65    61    62  ar
    66    61    63  ar
    67    64    65   1
    68    65    66   1
    69    65    69   1
    70    66    67  ar
    71    66    68  ar
    72    69    70   1
    73     1    71   1
    74     1    72   1
    75     1    73   1
    76     2    74   1
    77     3    75   1
    78     4    76   1
    79     4    77   1
    80     4    78   1
    81     5    79   1
    82     5    80   1
    83     5    81   1
    84     9    82   1
    85    10    83   1
    86    10    84   1
    87    11    85   1
    88    11    86   1
    89    12    87   1
    90    12    88   1
    91    15    89   1
    92    16    90   1
    93    16    91   1
    94    19    92   1
    95    20    93   1
    96    23    94   1
    97    23    95   1
    98    24    96   1
    99    25    97   1
   100    26    98   1
   101    29    99   1
   102    29   100   1
   103    30   101   1
   104    30   102   1
   105    33   103   1
   106    33   104   1
   107    34   105   1
   108    35   106   1
   109    38   107   1
   110    38   108   1
   111    41   109   1
   112    42   110   1
   113    43   111   1
   114    44   112   1
   115    45   113   1
   116    48   114   1
   117    48   115   1
   118    50   116   1
   119    51   117   1
   120    52   118   1
   121    53   119   1
   122    55   120   1
   123    56   121   1
   124    57   122   1
   125    60   123   1
   126    60   124   1
   127    64   125   1
   128    65   126   1
   129    69   127   1
   130    69   128   1
   131    70   129   1
@<TRIPOS>SUBSTRUCTURE
     1  DVA      2

