@<TRIPOS>MOLECULE
1zea_ligand_029
   129   131
SMALL
GAST_HUCK
****
This file was generated by PARSER (from files_GN.cpp)

@<TRIPOS>ATOM
      1 N          49.3943   55.3390   77.0335 N.4         1 DVA       0.2381
      2 CA         50.1351   54.4175   77.9172 C.3         1 DVA       0.0675
      3 CB         51.6762   54.4716   77.6231 C.3         1 DVA       0.0139
      4 CG1        52.5115   53.8467   78.7759 C.3         1 DVA      -0.0553
      5 CG2        52.1068   53.8739   76.2532 C.3         1 DVA      -0.0553
      6 C          49.5238   53.0824   77.8545 C.2         1 DVA       0.2295
      7 O          49.6272   52.5174   76.7694 O.2         1 DVA      -0.3905
      8 N          48.8739   52.4479   78.8526 N.am        1 DVA      -0.2471
      9 CA         48.6779   52.9352   80.1973 C.3         1 DVA       0.1339
     10 CB         48.3041   51.6783   81.0204 C.3         1 DVA      -0.0104
     11 CG         47.6617   50.7304   80.0034 C.3         1 DVA      -0.0281
     12 CD         48.3480   51.1153   78.6812 C.3         1 DVA       0.0371
     13 C          47.6667   53.9902   80.2598 C.2         1 DVA       0.2039
     14 O          46.5294   53.7537   79.8748 O.2         1 DVA      -0.3944
     15 N          48.0157   55.2019   80.6671 N.am        1 DVA      -0.2664
     16 CA         47.2160   56.3926   80.6873 C.3         1 DVA       0.1201
     17 C          47.3513   57.1102   81.9465 C.2         1 DVA       0.2008
     18 O          48.2780   56.8349   82.7019 O.2         1 DVA      -0.3947
     19 N          46.4884   58.0754   82.2554 N.am        1 DVA      -0.2618
     20 CA         46.4196   58.8539   83.4635 C.3         1 DVA       0.1539
     21 C          46.6219   58.0072   84.6423 C.2         1 DVA       0.2062
     22 O          47.4458   58.3067   85.4973 O.2         1 DVA      -0.3943
     23 CB         47.2916   60.1419   83.3763 C.3         1 DVA       0.0843
     24 OG         48.6923   59.8685   83.3698 O.3         1 DVA      -0.3903
     25 N          45.8756   56.9152   84.7675 N.am        1 DVA      -0.2635
     26 CA         45.9218   55.9210   85.8038 C.3         1 DVA       0.1330
     27 C          44.7997   56.1348   86.7074 C.2         1 DVA       0.2041
     28 O          45.0356   56.3345   87.8935 O.2         1 DVA      -0.3944
     29 CB         45.8698   54.4940   85.1819 C.3         1 DVA       0.0045
     30 CG         47.0894   54.1398   84.2883 C.3         1 DVA       0.0412
     31 CD         48.3541   54.0972   85.0009 C.2         1 DVA       0.1737
     32 OE1        48.5647   53.2208   85.8279 O.2         1 DVA      -0.3973
     33 NE2        49.3041   54.9819   84.7774 N.am        1 DVA      -0.3009
     34 N          43.5488   56.1212   86.2483 N.am        1 DVA      -0.2625
     35 CA         42.3213   56.3432   86.9676 C.3         1 DVA       0.1369
     36 C          41.8039   55.0876   87.5053 C.2         1 DVA       0.2055
     37 O          40.5926   54.9023   87.4373 O.2         1 DVA      -0.3942
     38 CB         42.3870   57.4892   88.0335 C.3         1 DVA       0.0145
     39 CG         41.0914   58.0626   88.4617 C.2         1 DVA      -0.0027
     40 ND1        39.8565   57.6435   88.1218 N.2         1 DVA      -0.3252
     41 CD2        40.9475   59.1444   89.3177 C.2         1 DVA       0.0291
     42 CE1        38.9757   58.4364   88.7469 C.2         1 DVA       0.0907
     43 NE2        39.6304   59.3521   89.4764 N.pl3       1 DVA      -0.2752
     44 N          42.5985   54.2357   88.1423 N.am        1 DVA      -0.2620
     45 CA         42.2101   53.0392   88.8393 C.3         1 DVA       0.1390
     46 C          43.1125   51.9085   88.6029 C.2         1 DVA       0.2058
     47 O          42.7549   50.8144   89.0255 O.2         1 DVA      -0.3942
     48 CB         42.0956   53.4147   90.3590 C.3         1 DVA       0.0163
     49 CG         40.9149   52.8060   91.0378 C.ar        1 DVA      -0.0493
     50 CD1        41.0610   51.8901   92.1060 C.ar        1 DVA      -0.0685
     51 CD2        39.6097   53.1709   90.6314 C.ar        1 DVA      -0.0685
     52 CE1        39.9314   51.3492   92.7461 C.ar        1 DVA      -0.0398
     53 CE2        38.4816   52.6217   91.2585 C.ar        1 DVA      -0.0398
     54 CZ         38.6378   51.6998   92.3166 C.ar        1 DVA       0.0805
     55 OH         37.5559   51.1568   92.9342 O.3         1 DVA      -0.3376
     56 N          44.2737   52.0244   87.9549 N.am        1 DVA      -0.2620
     57 CA         45.2335   50.9790   87.6917 C.3         1 DVA       0.1423
     58 C          45.2179   50.6617   86.2599 C.2         1 DVA       0.2051
     59 O          46.2389   50.7631   85.5889 O.2         1 DVA      -0.3943
     60 CB         46.6222   51.4041   88.2607 C.3         1 DVA       0.0406
     61 CG         46.6239   51.6020   89.7232 C.2         1 DVA       0.0393
     62 OD1        46.1979   50.6225   90.5522 O.co2       1 DVA      -0.5688
     63 OD2        47.1214   52.7385   90.2620 O.co2       1 DVA      -0.5688
     64 N          44.1069   50.1631   85.7301 N.am        1 DVA      -0.2671
     65 CA         43.8944   49.6351   84.4086 C.3         1 DVA       0.1173
     66 C          44.0224   50.6465   83.3337 C.2         1 DVA       0.0623
     67 O          44.9976   51.5868   83.3575 O.co2       1 DVA      -0.5665
     68 OXT        43.3896   50.4716   82.1590 O.co2       1 DVA      -0.5665
     69 CB         44.7353   48.3628   84.1234 C.3         1 DVA       0.0789
     70 OG         44.1954   47.6451   83.0172 O.3         1 DVA      -0.3910
     71 H1         49.7928   56.2768   77.1091 H           1 DVA       0.2015
     72 H2         48.4125   55.3699   77.3122 H           1 DVA       0.2015
     73 H3         49.4590   55.0215   76.0652 H           1 DVA       0.2015
     74 H4         50.0043   54.8461   78.9071 H           1 DVA       0.1101
     75 H5         51.9491   55.5326   77.5921 H           1 DVA       0.0376
     76 H6         53.5786   53.9628   78.5789 H           1 DVA       0.0236
     77 H7         52.2894   52.7846   78.8809 H           1 DVA       0.0236
     78 H8         52.2893   54.3471   79.7197 H           1 DVA       0.0236
     79 H9         51.4944   54.2771   75.4453 H           1 DVA       0.0236
     80 H10        52.0149   52.7864   76.2552 H           1 DVA       0.0236
     81 H11        53.1485   54.1257   76.0441 H           1 DVA       0.0236
     82 H12        49.6301   53.2959   80.5939 H           1 DVA       0.0802
     83 H13        47.6229   51.8849   81.8453 H           1 DVA       0.0313
     84 H14        49.2086   51.2105   81.4238 H           1 DVA       0.0313
     85 H15        46.5854   50.9210   79.9421 H           1 DVA       0.0287
     86 H16        47.8258   49.6781   80.2596 H           1 DVA       0.0287
     87 H17        49.1643   50.4168   78.4637 H           1 DVA       0.0524
     88 H18        47.6161   51.0761   77.8661 H           1 DVA       0.0524
     89 H19        48.9478   55.3264   80.9043 H           1 DVA       0.1881
     90 H20        46.1604   56.1750   80.4918 H           1 DVA       0.0763
     91 H21        47.5731   57.0494   79.8905 H           1 DVA       0.0763
     92 H22        45.7935   58.2535   81.5994 H           1 DVA       0.1884
     93 H23        45.3843   59.1991   83.5198 H           1 DVA       0.0823
     94 H24        47.0694   60.7858   84.2316 H           1 DVA       0.0606
     95 H25        47.0379   60.6877   82.4663 H           1 DVA       0.0606
     96 H26        49.1236   60.7477   83.3173 H           1 DVA       0.2097
     97 H27        45.2135   56.7674   84.0751 H           1 DVA       0.1883
     98 H28        46.8560   55.9976   86.3710 H           1 DVA       0.0801
     99 H29        44.9676   54.4104   84.5661 H           1 DVA       0.0337
    100 H30        45.7946   53.7507   85.9808 H           1 DVA       0.0337
    101 H31        47.1355   54.8551   83.4572 H           1 DVA       0.0504
    102 H32        46.9196   53.1526   83.8598 H           1 DVA       0.0504
    103 H33        50.1419   54.9219   85.2770 H           1 DVA       0.1814
    104 H34        49.1661   55.7032   84.1296 H           1 DVA       0.1814
    105 H35        43.4475   55.9626   85.2938 H           1 DVA       0.1885
    106 H36        41.6360   56.7029   86.1840 H           1 DVA       0.0817
    107 H37        42.9827   58.3054   87.6196 H           1 DVA       0.0420
    108 H38        42.9010   57.1328   88.9301 H           1 DVA       0.0420
    109 H39        41.6925   59.6875   89.7584 H           1 DVA       0.0729
    110 H40        37.9627   58.3568   88.7001 H           1 DVA       0.1199
    111 H41        39.2129   60.0286   90.0462 H           1 DVA       0.2361
    112 H42        43.5290   54.4891   88.2304 H           1 DVA       0.1885
    113 H43        41.2342   52.7135   88.4677 H           1 DVA       0.0821
    114 H44        41.9972   54.5035   90.4840 H           1 DVA       0.0453
    115 H45        43.0274   53.1433   90.8705 H           1 DVA       0.0453
    116 H46        41.9901   51.6088   92.4218 H           1 DVA       0.0530
    117 H47        39.4701   53.8385   89.8715 H           1 DVA       0.0530
    118 H48        40.0476   50.6957   93.5223 H           1 DVA       0.0525
    119 H49        37.5456   52.8977   90.9574 H           1 DVA       0.0525
    120 H50        37.3356   50.3491   92.4104 H           1 DVA       0.2458
    121 H51        44.5060   52.9072   87.6225 H           1 DVA       0.1884
    122 H52        44.9576   50.0489   88.1972 H           1 DVA       0.0819
    123 H53        46.9418   52.3313   87.7786 H           1 DVA       0.0478
    124 H54        47.3626   50.6333   88.0273 H           1 DVA       0.0478
    125 H55        43.3478   50.0890   86.3329 H           1 DVA       0.1876
    126 H56        42.8504   49.3122   84.4137 H           1 DVA       0.0749
    127 H57        44.7125   47.6969   84.9901 H           1 DVA       0.0599
    128 H58        45.7807   48.6068   83.9103 H           1 DVA       0.0599
    129 H59        44.6849   47.9592   82.2249 H           1 DVA       0.2096
@<TRIPOS>BOND
     1     1     2   1
     2     2     3   1
     3     2     6   1
     4     3     4   1
     5     3     5   1
     6     6     7   2
     7     6     8  am
     8     8     9   1
     9     8    12   1
    10     9    10   1
    11     9    13   1
    12    10    11   1
    13    11    12   1
    14    13    14   2
    15    13    15  am
    16    15    16   1
    17    16    17   1
    18    17    18   2
    19    17    19  am
    20    19    20   1
    21    20    21   1
    22    20    23   1
    23    21    22   2
    24    21    25  am
    25    23    24   1
    26    25    26   1
    27    26    27   1
    28    26    29   1
    29    27    28   2
    30    27    34  am
    31    29    30   1
    32    30    31   1
    33    31    32   2
    34    31    33  am
    35    34    35   1
    36    35    36   1
    37    35    38   1
    38    36    37   2
    39    36    44  am
    40    38    39   1
    41    39    40   1
    42    39    41   2
    43    40    42   2
    44    41    43   1
    45    42    43   1
    46    44    45   1
    47    45    46   1
    48    45    48   1
    49    46    47   2
    50    46    56  am
    51    48    49   1
    52    49    50  ar
    53    49    51  ar
    54    50    52  ar
    55    51    53  ar
    56    52    54  ar
    57    53    54  ar
    58    54    55   1
    59    56    57   1
    60    57    58   1
    61    57    60   1
    62    58    59   2
    63    58    64  am
    64    60    61   1
    65    61    62  ar
    66    61    63  ar
    67    64    65   1
    68    65    66   1
    69    65    69   1
    70    66    67  ar
    71    66    68  ar
    72    69    70   1
    73     1    71   1
    74     1    72   1
    75     1    73   1
    76     2    74   1
    77     3    75   1
    78     4    76   1
    79     4    77   1
    80     4    78   1
    81     5    79   1
    82     5    80   1
    83     5    81   1
    84     9    82   1
    85    10    83   1
    86    10    84   1
    87    11    85   1
    88    11    86   1
    89    12    87   1
    90    12    88   1
    91    15    89   1
    92    16    90   1
    93    16    91   1
    94    19    92   1
    95    20    93   1
    96    23    94   1
    97    23    95   1
    98    24    96   1
    99    25    97   1
   100    26    98   1
   101    29    99   1
   102    29   100   1
   103    30   101   1
   104    30   102   1
   105    33   103   1
   106    33   104   1
   107    34   105   1
   108    35   106   1
   109    38   107   1
   110    38   108   1
   111    41   109   1
   112    42   110   1
   113    43   111   1
   114    44   112   1
   115    45   113   1
   116    48   114   1
   117    48   115   1
   118    50   116   1
   119    51   117   1
   120    52   118   1
   121    53   119   1
   122    55   120   1
   123    56   121   1
   124    57   122   1
   125    60   123   1
   126    60   124   1
   127    64   125   1
   128    65   126   1
   129    69   127   1
   130    69   128   1
   131    70   129   1
@<TRIPOS>SUBSTRUCTURE
     1  DVA      2

