@<TRIPOS>MOLECULE
1zea_ligand_051
   129   131
SMALL
GAST_HUCK
****
This file was generated by PARSER (from files_GN.cpp)

@<TRIPOS>ATOM
      1 N          34.9607   48.2252   93.7794 N.4         1 DVA       0.2381
      2 CA         36.1105   48.6694   94.6002 C.3         1 DVA       0.0675
      3 CB         37.2795   47.6173   94.5948 C.3         1 DVA       0.0139
      4 CG1        36.8351   46.1622   94.9078 C.3         1 DVA      -0.0553
      5 CG2        38.0684   47.6520   93.2538 C.3         1 DVA      -0.0553
      6 C          35.6606   49.0298   95.9545 C.2         1 DVA       0.2295
      7 O          34.8421   48.2633   96.4599 O.2         1 DVA      -0.3905
      8 N          36.0881   50.0819   96.6912 N.am        1 DVA      -0.2471
      9 CA         37.0819   51.0653   96.2887 C.3         1 DVA       0.1339
     10 CB         37.3537   51.9228   97.5526 C.3         1 DVA      -0.0104
     11 CG         36.8379   51.0622   98.7113 C.3         1 DVA      -0.0281
     12 CD         35.7096   50.2472   98.0650 C.3         1 DVA       0.0371
     13 C          36.7548   51.9319   95.1586 C.2         1 DVA       0.2039
     14 O          35.7370   51.7192   94.5070 O.2         1 DVA      -0.3944
     15 N          37.6531   52.8409   94.7813 N.am        1 DVA      -0.2664
     16 CA         37.6369   53.5933   93.5637 C.3         1 DVA       0.1201
     17 C          38.1967   52.8080   92.4756 C.2         1 DVA       0.2008
     18 O          37.9588   51.6024   92.4378 O.2         1 DVA      -0.3947
     19 N          38.8986   53.3973   91.5127 N.am        1 DVA      -0.2618
     20 CA         39.4956   52.7524   90.3779 C.3         1 DVA       0.1539
     21 C          39.8990   53.7918   89.4410 C.2         1 DVA       0.2062
     22 O          39.0843   54.1464   88.5845 O.2         1 DVA      -0.3943
     23 CB         40.6377   51.7872   90.8279 C.3         1 DVA       0.0843
     24 OG         41.4042   51.3555   89.7088 O.3         1 DVA      -0.3903
     25 N          41.0866   54.3905   89.4994 N.am        1 DVA      -0.2635
     26 CA         41.5732   55.4895   88.7042 C.3         1 DVA       0.1330
     27 C          41.4565   55.2148   87.2735 C.2         1 DVA       0.2041
     28 O          40.3501   55.3046   86.7496 O.2         1 DVA      -0.3944
     29 CB         40.9333   56.8470   89.1702 C.3         1 DVA       0.0045
     30 CG         41.2579   58.0972   88.2904 C.3         1 DVA       0.0412
     31 CD         40.0674   58.7535   87.7666 C.2         1 DVA       0.1737
     32 OE1        39.7374   58.6244   86.5970 O.2         1 DVA      -0.3973
     33 NE2        39.2851   59.4534   88.5532 N.am        1 DVA      -0.3009
     34 N          42.5042   54.7800   86.5872 N.am        1 DVA      -0.2625
     35 CA         42.5095   54.5029   85.1698 C.3         1 DVA       0.1369
     36 C          43.9079   54.3163   84.7505 C.2         1 DVA       0.2055
     37 O          44.2981   53.2378   84.3159 O.2         1 DVA      -0.3942
     38 CB         41.5038   53.3393   84.8341 C.3         1 DVA       0.0145
     39 CG         40.6010   53.6843   83.7151 C.2         1 DVA      -0.0027
     40 ND1        40.9554   53.7633   82.4189 N.2         1 DVA      -0.3252
     41 CD2        39.2651   54.0557   83.8105 C.2         1 DVA       0.0291
     42 CE1        39.8682   54.1604   81.7321 C.2         1 DVA       0.0907
     43 NE2        38.8420   54.3470   82.5794 N.pl3       1 DVA      -0.2752
     44 N          44.7606   55.3235   84.9373 N.am        1 DVA      -0.2620
     45 CA         46.2058   55.3306   84.8293 C.3         1 DVA       0.1390
     46 C          46.8539   54.1036   85.3084 C.2         1 DVA       0.2058
     47 O          46.2299   53.4173   86.1181 O.2         1 DVA      -0.3942
     48 CB         46.6857   55.9578   83.4777 C.3         1 DVA       0.0163
     49 CG         46.8210   55.0612   82.2877 C.ar        1 DVA      -0.0493
     50 CD1        45.6793   54.6045   81.5829 C.ar        1 DVA      -0.0685
     51 CD2        48.0978   54.6787   81.8103 C.ar        1 DVA      -0.0685
     52 CE1        45.8087   53.7028   80.5147 C.ar        1 DVA      -0.0398
     53 CE2        48.2300   53.7887   80.7288 C.ar        1 DVA      -0.0398
     54 CZ         47.0844   53.2674   80.1038 C.ar        1 DVA       0.0805
     55 OH         47.2363   52.3496   79.1118 O.3         1 DVA      -0.3376
     56 N          48.0161   53.6835   84.8304 N.am        1 DVA      -0.2620
     57 CA         48.6034   52.3837   84.9853 C.3         1 DVA       0.1423
     58 C          48.0965   51.5967   83.8571 C.2         1 DVA       0.2051
     59 O          48.6034   51.7478   82.7453 O.2         1 DVA      -0.3943
     60 CB         50.1560   52.4532   85.0209 C.3         1 DVA       0.0406
     61 CG         50.6780   53.3274   86.0891 C.2         1 DVA       0.0393
     62 OD1        51.4675   52.8339   87.0670 O.co2       1 DVA      -0.5688
     63 OD2        50.5163   54.6709   86.0160 O.co2       1 DVA      -0.5688
     64 N          46.9689   50.9048   83.9780 N.am        1 DVA      -0.2671
     65 CA         46.1793   50.3936   82.8932 C.3         1 DVA       0.1173
     66 C          46.9910   49.5770   81.9640 C.2         1 DVA       0.0623
     67 O          47.2914   48.2942   82.2728 O.co2       1 DVA      -0.5665
     68 OXT        47.5201   50.1389   80.8477 O.co2       1 DVA      -0.5665
     69 CB         44.9703   49.5897   83.4395 C.3         1 DVA       0.0789
     70 OG         43.9397   49.4458   82.4630 O.3         1 DVA      -0.3910
     71 H1         35.2624   48.0846   92.8154 H           1 DVA       0.2015
     72 H2         34.2284   48.9382   93.7958 H           1 DVA       0.2015
     73 H3         34.5870   47.3537   94.1540 H           1 DVA       0.2015
     74 H4         36.4698   49.5670   94.0965 H           1 DVA       0.1101
     75 H5         37.9940   47.9119   95.3762 H           1 DVA       0.0376
     76 H6         36.1917   45.7748   94.1149 H           1 DVA       0.0236
     77 H7         36.2918   46.1125   95.8540 H           1 DVA       0.0236
     78 H8         37.7077   45.5091   94.9912 H           1 DVA       0.0236
     79 H9         37.4151   47.3985   92.4187 H           1 DVA       0.0236
     80 H10        38.8943   46.9382   93.2787 H           1 DVA       0.0236
     81 H11        38.4860   48.6425   93.0794 H           1 DVA       0.0236
     82 H12        37.9953   50.5116   96.0469 H           1 DVA       0.0802
     83 H13        36.7960   52.8657   97.5516 H           1 DVA       0.0313
     84 H14        38.4149   52.1492   97.6732 H           1 DVA       0.0313
     85 H15        36.4806   51.6688   99.5538 H           1 DVA       0.0287
     86 H16        37.6323   50.3964   99.0642 H           1 DVA       0.0287
     87 H17        35.6116   49.3010   98.6056 H           1 DVA       0.0524
     88 H18        34.7638   50.7888   98.1266 H           1 DVA       0.0524
     89 H19        38.4628   52.9009   95.3121 H           1 DVA       0.1881
     90 H20        38.2306   54.4940   93.7306 H           1 DVA       0.0763
     91 H21        36.6300   53.9147   93.2928 H           1 DVA       0.0763
     92 H22        38.9028   54.3647   91.5178 H           1 DVA       0.1884
     93 H23        38.7293   52.1445   89.8801 H           1 DVA       0.0823
     94 H24        40.2213   50.9087   91.3177 H           1 DVA       0.0606
     95 H25        41.3093   52.2792   91.5343 H           1 DVA       0.0606
     96 H26        41.7993   50.4963   89.9794 H           1 DVA       0.2097
     97 H27        41.6981   54.0680   90.1880 H           1 DVA       0.1883
     98 H28        42.6391   55.5766   88.9412 H           1 DVA       0.0801
     99 H29        41.2870   57.0423   90.1892 H           1 DVA       0.0337
    100 H30        39.8497   56.7049   89.2546 H           1 DVA       0.0337
    101 H31        41.9184   57.8176   87.4626 H           1 DVA       0.0504
    102 H32        41.8116   58.8334   88.8888 H           1 DVA       0.0504
    103 H33        38.4720   59.8477   88.2035 H           1 DVA       0.1814
    104 H34        39.5002   59.5703   89.4913 H           1 DVA       0.1814
    105 H35        43.3465   54.6995   87.0669 H           1 DVA       0.1885
    106 H36        42.1738   55.4190   84.6636 H           1 DVA       0.0817
    107 H37        40.8827   53.1164   85.7042 H           1 DVA       0.0420
    108 H38        42.0129   52.4071   84.5815 H           1 DVA       0.0420
    109 H39        38.7031   54.1245   84.6608 H           1 DVA       0.0729
    110 H40        39.8336   54.3024   80.7214 H           1 DVA       0.1199
    111 H41        37.9485   54.6577   82.3379 H           1 DVA       0.2361
    112 H42        44.3805   56.1267   85.3144 H           1 DVA       0.1885
    113 H43        46.4963   56.0702   85.5878 H           1 DVA       0.0821
    114 H44        47.6547   56.4385   83.6754 H           1 DVA       0.0453
    115 H45        46.0111   56.7774   83.2010 H           1 DVA       0.0453
    116 H46        44.7488   54.9151   81.8490 H           1 DVA       0.0530
    117 H47        48.9442   55.0166   82.2679 H           1 DVA       0.0530
    118 H48        44.9735   53.3484   80.0383 H           1 DVA       0.0525
    119 H49        49.1620   53.5001   80.4204 H           1 DVA       0.0525
    120 H50        46.7458   51.5553   79.4148 H           1 DVA       0.2458
    121 H51        48.4860   54.2883   84.2330 H           1 DVA       0.1884
    122 H52        48.2720   51.9171   85.9219 H           1 DVA       0.0819
    123 H53        50.5384   52.8213   84.0648 H           1 DVA       0.0478
    124 H54        50.5474   51.4466   85.1697 H           1 DVA       0.0478
    125 H55        46.5928   50.8297   84.8687 H           1 DVA       0.1876
    126 H56        45.7748   51.2503   82.3442 H           1 DVA       0.0749
    127 H57        44.5387   50.1196   84.2934 H           1 DVA       0.0599
    128 H58        45.2757   48.5960   83.7757 H           1 DVA       0.0599
    129 H59        44.3597   48.9821   81.7072 H           1 DVA       0.2096
@<TRIPOS>BOND
     1     1     2   1
     2     2     3   1
     3     2     6   1
     4     3     4   1
     5     3     5   1
     6     6     7   2
     7     6     8  am
     8     8     9   1
     9     8    12   1
    10     9    10   1
    11     9    13   1
    12    10    11   1
    13    11    12   1
    14    13    14   2
    15    13    15  am
    16    15    16   1
    17    16    17   1
    18    17    18   2
    19    17    19  am
    20    19    20   1
    21    20    21   1
    22    20    23   1
    23    21    22   2
    24    21    25  am
    25    23    24   1
    26    25    26   1
    27    26    27   1
    28    26    29   1
    29    27    28   2
    30    27    34  am
    31    29    30   1
    32    30    31   1
    33    31    32   2
    34    31    33  am
    35    34    35   1
    36    35    36   1
    37    35    38   1
    38    36    37   2
    39    36    44  am
    40    38    39   1
    41    39    40   1
    42    39    41   2
    43    40    42   2
    44    41    43   1
    45    42    43   1
    46    44    45   1
    47    45    46   1
    48    45    48   1
    49    46    47   2
    50    46    56  am
    51    48    49   1
    52    49    50  ar
    53    49    51  ar
    54    50    52  ar
    55    51    53  ar
    56    52    54  ar
    57    53    54  ar
    58    54    55   1
    59    56    57   1
    60    57    58   1
    61    57    60   1
    62    58    59   2
    63    58    64  am
    64    60    61   1
    65    61    62  ar
    66    61    63  ar
    67    64    65   1
    68    65    66   1
    69    65    69   1
    70    66    67  ar
    71    66    68  ar
    72    69    70   1
    73     1    71   1
    74     1    72   1
    75     1    73   1
    76     2    74   1
    77     3    75   1
    78     4    76   1
    79     4    77   1
    80     4    78   1
    81     5    79   1
    82     5    80   1
    83     5    81   1
    84     9    82   1
    85    10    83   1
    86    10    84   1
    87    11    85   1
    88    11    86   1
    89    12    87   1
    90    12    88   1
    91    15    89   1
    92    16    90   1
    93    16    91   1
    94    19    92   1
    95    20    93   1
    96    23    94   1
    97    23    95   1
    98    24    96   1
    99    25    97   1
   100    26    98   1
   101    29    99   1
   102    29   100   1
   103    30   101   1
   104    30   102   1
   105    33   103   1
   106    33   104   1
   107    34   105   1
   108    35   106   1
   109    38   107   1
   110    38   108   1
   111    41   109   1
   112    42   110   1
   113    43   111   1
   114    44   112   1
   115    45   113   1
   116    48   114   1
   117    48   115   1
   118    50   116   1
   119    51   117   1
   120    52   118   1
   121    53   119   1
   122    55   120   1
   123    56   121   1
   124    57   122   1
   125    60   123   1
   126    60   124   1
   127    64   125   1
   128    65   126   1
   129    69   127   1
   130    69   128   1
   131    70   129   1
@<TRIPOS>SUBSTRUCTURE
     1  DVA      2

