@<TRIPOS>MOLECULE
1zea_ligand_080
   129   131
SMALL
GAST_HUCK
****
This file was generated by PARSER (from files_GN.cpp)

@<TRIPOS>ATOM
      1 N          45.3930   64.7215   94.0612 N.4         1 DVA       0.2381
      2 CA         45.1505   63.3304   94.4894 C.3         1 DVA       0.0675
      3 CB         44.5598   63.2541   95.9470 C.3         1 DVA       0.0139
      4 CG1        43.2823   64.1257   96.1248 C.3         1 DVA      -0.0553
      5 CG2        44.2481   61.7909   96.3727 C.3         1 DVA      -0.0553
      6 C          46.4123   62.5923   94.3502 C.2         1 DVA       0.2295
      7 O          47.3893   63.1734   94.8125 O.2         1 DVA      -0.3905
      8 N          46.5778   61.3620   93.8253 N.am        1 DVA      -0.2471
      9 CA         45.5366   60.5071   93.2825 C.3         1 DVA       0.1339
     10 CB         46.2326   59.1382   93.0350 C.3         1 DVA      -0.0104
     11 CG         47.4833   59.1833   93.9120 C.3         1 DVA      -0.0281
     12 CD         47.8432   60.6724   93.8952 C.3         1 DVA       0.0371
     13 C          44.8574   60.9522   92.0698 C.2         1 DVA       0.2039
     14 O          45.0766   62.0665   91.6081 O.2         1 DVA      -0.3944
     15 N          44.0354   60.1074   91.4560 N.am        1 DVA      -0.2664
     16 CA         43.3239   60.3577   90.2398 C.3         1 DVA       0.1201
     17 C          42.2395   59.4283   89.9724 C.2         1 DVA       0.2008
     18 O          42.1219   58.4054   90.6390 O.2         1 DVA      -0.3947
     19 N          41.3829   59.7119   88.9939 N.am        1 DVA      -0.2618
     20 CA         40.2362   58.9917   88.5171 C.3         1 DVA       0.1539
     21 C          40.5933   58.0908   87.4275 C.2         1 DVA       0.2062
     22 O          40.1704   58.3213   86.3006 O.2         1 DVA      -0.3943
     23 CB         39.3369   58.3650   89.6240 C.3         1 DVA       0.0843
     24 OG         39.6084   56.9984   89.9153 O.3         1 DVA      -0.3903
     25 N          41.4291   57.0787   87.6410 N.am        1 DVA      -0.2635
     26 CA         42.0514   56.2331   86.6628 C.3         1 DVA       0.1330
     27 C          43.4791   56.2490   86.9528 C.2         1 DVA       0.2041
     28 O          44.0403   55.2611   87.4020 O.2         1 DVA      -0.3944
     29 CB         41.3495   54.8368   86.5604 C.3         1 DVA       0.0045
     30 CG         41.0062   54.0659   87.8717 C.3         1 DVA       0.0412
     31 CD         42.1321   53.4324   88.5340 C.2         1 DVA       0.1737
     32 OE1        42.7471   54.0153   89.4176 O.2         1 DVA      -0.3973
     33 NE2        42.5122   52.2115   88.2207 N.am        1 DVA      -0.3009
     34 N          44.1681   57.3736   86.7501 N.am        1 DVA      -0.2625
     35 CA         45.5817   57.5488   86.9428 C.3         1 DVA       0.1369
     36 C          46.3453   56.4473   86.3650 C.2         1 DVA       0.2055
     37 O          47.3008   55.9983   86.9879 O.2         1 DVA      -0.3942
     38 CB         46.0738   58.9266   86.4000 C.3         1 DVA       0.0145
     39 CG         46.0634   59.0717   84.9302 C.2         1 DVA      -0.0027
     40 ND1        45.0286   59.5086   84.1877 N.2         1 DVA      -0.3252
     41 CD2        47.1034   58.7657   84.0504 C.2         1 DVA       0.0291
     42 CE1        45.4143   59.4807   82.9027 C.2         1 DVA       0.0907
     43 NE2        46.6752   59.0105   82.8213 N.pl3       1 DVA      -0.2752
     44 N          45.9346   55.8760   85.2345 N.am        1 DVA      -0.2620
     45 CA         46.4453   54.6691   84.6338 C.3         1 DVA       0.1390
     46 C          46.0294   53.5354   85.4789 C.2         1 DVA       0.2058
     47 O          44.8348   53.4105   85.7700 O.2         1 DVA      -0.3942
     48 CB         46.0775   54.6180   83.1030 C.3         1 DVA       0.0163
     49 CG         45.3998   53.3947   82.5824 C.ar        1 DVA      -0.0493
     50 CD1        46.1222   52.3871   81.9077 C.ar        1 DVA      -0.0685
     51 CD2        44.0055   53.2072   82.7673 C.ar        1 DVA      -0.0685
     52 CE1        45.5063   51.1790   81.5346 C.ar        1 DVA      -0.0398
     53 CE2        43.3898   52.0086   82.4022 C.ar        1 DVA      -0.0398
     54 CZ         44.1388   50.9635   81.8150 C.ar        1 DVA       0.0805
     55 OH         43.5563   49.7627   81.5811 O.3         1 DVA      -0.3376
     56 N          46.9357   52.7573   86.0515 N.am        1 DVA      -0.2620
     57 CA         46.7218   51.7888   87.0980 C.3         1 DVA       0.1423
     58 C          46.6871   50.4537   86.5013 C.2         1 DVA       0.2051
     59 O          47.3863   49.5547   86.9653 O.2         1 DVA      -0.3943
     60 CB         47.8125   52.0130   88.2021 C.3         1 DVA       0.0406
     61 CG         47.7029   51.1524   89.3907 C.2         1 DVA       0.0393
     62 OD1        46.6813   50.2768   89.5705 O.co2       1 DVA      -0.5688
     63 OD2        48.7629   51.0578   90.2376 O.co2       1 DVA      -0.5688
     64 N          45.9287   50.2482   85.4374 N.am        1 DVA      -0.2671
     65 CA         45.8837   49.0597   84.6252 C.3         1 DVA       0.1173
     66 C          44.5462   48.8687   84.0158 C.2         1 DVA       0.0623
     67 O          43.5844   49.8163   84.0901 O.co2       1 DVA      -0.5665
     68 OXT        44.2076   47.6941   83.4577 O.co2       1 DVA      -0.5665
     69 CB         47.0145   49.0581   83.5541 C.3         1 DVA       0.0789
     70 OG         47.4186   50.3781   83.1981 O.3         1 DVA      -0.3910
     71 H1         44.5336   65.2709   94.1096 H           1 DVA       0.2015
     72 H2         45.7359   64.7296   93.0983 H           1 DVA       0.2015
     73 H3         46.0912   65.1551   94.6685 H           1 DVA       0.2015
     74 H4         44.3878   62.9406   93.8163 H           1 DVA       0.1101
     75 H5         45.3062   63.6456   96.6434 H           1 DVA       0.0376
     76 H6         42.5185   63.8516   95.3916 H           1 DVA       0.0236
     77 H7         43.5197   65.1826   96.0041 H           1 DVA       0.0236
     78 H8         42.8639   63.9980   97.1252 H           1 DVA       0.0236
     79 H9         43.4943   61.3487   95.7148 H           1 DVA       0.0236
     80 H10        43.8738   61.7593   97.3993 H           1 DVA       0.0236
     81 H11        45.1461   61.1737   96.3288 H           1 DVA       0.0236
     82 H12        44.7847   60.3682   94.0689 H           1 DVA       0.0802
     83 H13        46.5418   59.0203   91.9894 H           1 DVA       0.0313
     84 H14        45.5849   58.3007   93.3088 H           1 DVA       0.0313
     85 H15        48.2876   58.5610   93.5155 H           1 DVA       0.0287
     86 H16        47.2411   58.8654   94.9308 H           1 DVA       0.0287
     87 H17        48.4235   60.9038   94.7938 H           1 DVA       0.0524
     88 H18        48.4386   60.9168   93.0105 H           1 DVA       0.0524
     89 H19        43.9108   59.2372   91.8693 H           1 DVA       0.1881
     90 H20        44.0227   60.3146   89.3979 H           1 DVA       0.0763
     91 H21        42.9091   61.3659   90.2904 H           1 DVA       0.0763
     92 H22        41.5631   60.5408   88.5193 H           1 DVA       0.1884
     93 H23        39.6088   59.7806   88.0864 H           1 DVA       0.0823
     94 H24        38.2835   58.4433   89.3283 H           1 DVA       0.0606
     95 H25        39.4663   58.9263   90.5501 H           1 DVA       0.0606
     96 H26        39.2249   56.5015   89.1620 H           1 DVA       0.2097
     97 H27        41.6957   56.9270   88.5613 H           1 DVA       0.1883
     98 H28        41.9471   56.6628   85.6589 H           1 DVA       0.0801
     99 H29        41.9398   54.1936   85.9023 H           1 DVA       0.0337
    100 H30        40.4024   55.0039   86.0412 H           1 DVA       0.0337
    101 H31        40.2917   53.2698   87.6337 H           1 DVA       0.0504
    102 H32        40.4914   54.7364   88.5621 H           1 DVA       0.0504
    103 H33        43.2656   51.8092   88.6778 H           1 DVA       0.1814
    104 H34        42.0113   51.6853   87.5771 H           1 DVA       0.1814
    105 H35        43.6681   58.1383   86.4255 H           1 DVA       0.1885
    106 H36        45.7480   57.5762   88.0236 H           1 DVA       0.0817
    107 H37        47.0912   59.0987   86.7624 H           1 DVA       0.0420
    108 H38        45.4568   59.7232   86.8239 H           1 DVA       0.0420
    109 H39        48.0231   58.3953   84.3072 H           1 DVA       0.0729
    110 H40        44.8397   59.7566   82.1086 H           1 DVA       0.1199
    111 H41        47.1796   58.8920   82.0005 H           1 DVA       0.2361
    112 H42        45.1682   56.2859   84.8036 H           1 DVA       0.1885
    113 H43        47.5420   54.7494   84.6787 H           1 DVA       0.0821
    114 H44        47.0025   54.7581   82.5430 H           1 DVA       0.0453
    115 H45        45.4598   55.4699   82.8229 H           1 DVA       0.0453
    116 H46        47.1259   52.4960   81.7330 H           1 DVA       0.0530
    117 H47        43.4452   53.9449   83.2103 H           1 DVA       0.0530
    118 H48        46.0544   50.4430   81.1002 H           1 DVA       0.0525
    119 H49        42.3939   51.8638   82.5982 H           1 DVA       0.0525
    120 H50        44.2407   49.1907   81.1605 H           1 DVA       0.2458
    121 H51        47.8647   52.9145   85.8024 H           1 DVA       0.1884
    122 H52        45.7551   51.9709   87.5837 H           1 DVA       0.0819
    123 H53        47.7588   53.0534   88.5447 H           1 DVA       0.0478
    124 H54        48.8055   51.8667   87.7543 H           1 DVA       0.0478
    125 H55        45.3742   50.9839   85.1497 H           1 DVA       0.1876
    126 H56        46.0333   48.1968   85.2852 H           1 DVA       0.0749
    127 H57        46.7129   48.5190   82.6459 H           1 DVA       0.0599
    128 H58        47.8967   48.5505   83.9574 H           1 DVA       0.0599
    129 H59        48.3930   50.3224   83.0721 H           1 DVA       0.2096
@<TRIPOS>BOND
     1     1     2   1
     2     2     3   1
     3     2     6   1
     4     3     4   1
     5     3     5   1
     6     6     7   2
     7     6     8  am
     8     8     9   1
     9     8    12   1
    10     9    10   1
    11     9    13   1
    12    10    11   1
    13    11    12   1
    14    13    14   2
    15    13    15  am
    16    15    16   1
    17    16    17   1
    18    17    18   2
    19    17    19  am
    20    19    20   1
    21    20    21   1
    22    20    23   1
    23    21    22   2
    24    21    25  am
    25    23    24   1
    26    25    26   1
    27    26    27   1
    28    26    29   1
    29    27    28   2
    30    27    34  am
    31    29    30   1
    32    30    31   1
    33    31    32   2
    34    31    33  am
    35    34    35   1
    36    35    36   1
    37    35    38   1
    38    36    37   2
    39    36    44  am
    40    38    39   1
    41    39    40   1
    42    39    41   2
    43    40    42   2
    44    41    43   1
    45    42    43   1
    46    44    45   1
    47    45    46   1
    48    45    48   1
    49    46    47   2
    50    46    56  am
    51    48    49   1
    52    49    50  ar
    53    49    51  ar
    54    50    52  ar
    55    51    53  ar
    56    52    54  ar
    57    53    54  ar
    58    54    55   1
    59    56    57   1
    60    57    58   1
    61    57    60   1
    62    58    59   2
    63    58    64  am
    64    60    61   1
    65    61    62  ar
    66    61    63  ar
    67    64    65   1
    68    65    66   1
    69    65    69   1
    70    66    67  ar
    71    66    68  ar
    72    69    70   1
    73     1    71   1
    74     1    72   1
    75     1    73   1
    76     2    74   1
    77     3    75   1
    78     4    76   1
    79     4    77   1
    80     4    78   1
    81     5    79   1
    82     5    80   1
    83     5    81   1
    84     9    82   1
    85    10    83   1
    86    10    84   1
    87    11    85   1
    88    11    86   1
    89    12    87   1
    90    12    88   1
    91    15    89   1
    92    16    90   1
    93    16    91   1
    94    19    92   1
    95    20    93   1
    96    23    94   1
    97    23    95   1
    98    24    96   1
    99    25    97   1
   100    26    98   1
   101    29    99   1
   102    29   100   1
   103    30   101   1
   104    30   102   1
   105    33   103   1
   106    33   104   1
   107    34   105   1
   108    35   106   1
   109    38   107   1
   110    38   108   1
   111    41   109   1
   112    42   110   1
   113    43   111   1
   114    44   112   1
   115    45   113   1
   116    48   114   1
   117    48   115   1
   118    50   116   1
   119    51   117   1
   120    52   118   1
   121    53   119   1
   122    55   120   1
   123    56   121   1
   124    57   122   1
   125    60   123   1
   126    60   124   1
   127    64   125   1
   128    65   126   1
   129    69   127   1
   130    69   128   1
   131    70   129   1
@<TRIPOS>SUBSTRUCTURE
     1  DVA      2

