@<TRIPOS>MOLECULE
1zea_ligand_088
   129   131
SMALL
GAST_HUCK
****
This file was generated by PARSER (from files_GN.cpp)

@<TRIPOS>ATOM
      1 N          51.1024   49.9252   77.4293 N.4         1 DVA       0.2381
      2 CA         51.0877   51.2080   78.1625 C.3         1 DVA       0.0675
      3 CB         51.7168   52.3754   77.3203 C.3         1 DVA       0.0139
      4 CG1        53.1592   52.0837   76.8159 C.3         1 DVA      -0.0553
      5 CG2        50.8073   52.7819   76.1265 C.3         1 DVA      -0.0553
      6 C          51.7213   51.0615   79.4810 C.2         1 DVA       0.2295
      7 O          52.7120   50.3397   79.5320 O.2         1 DVA      -0.3905
      8 N          51.3592   51.7193   80.6002 N.am        1 DVA      -0.2471
      9 CA         50.2318   52.6224   80.7265 C.3         1 DVA       0.1339
     10 CB         50.5954   53.4764   81.9689 C.3         1 DVA      -0.0104
     11 CG         51.3864   52.5084   82.8526 C.3         1 DVA      -0.0281
     12 CD         52.1107   51.6207   81.8241 C.3         1 DVA       0.0371
     13 C          48.9382   51.9535   80.8762 C.2         1 DVA       0.2039
     14 O          48.8824   50.7312   80.9614 O.2         1 DVA      -0.3944
     15 N          47.8328   52.6883   80.9411 N.am        1 DVA      -0.2664
     16 CA         46.5052   52.1976   81.1659 C.3         1 DVA       0.1201
     17 C          46.2368   51.7226   82.5108 C.2         1 DVA       0.2008
     18 O          47.0589   51.8865   83.4031 O.2         1 DVA      -0.3947
     19 N          45.0791   51.1147   82.7458 N.am        1 DVA      -0.2618
     20 CA         44.6047   50.5866   83.9949 C.3         1 DVA       0.1539
     21 C          43.2624   51.1075   84.2396 C.2         1 DVA       0.2062
     22 O          42.3513   50.8136   83.4741 O.2         1 DVA      -0.3943
     23 CB         44.6468   49.0325   83.9463 C.3         1 DVA       0.0843
     24 OG         43.8959   48.5091   82.8459 O.3         1 DVA      -0.3903
     25 N          43.0317   51.9219   85.2618 N.am        1 DVA      -0.2635
     26 CA         41.7700   52.5290   85.6191 C.3         1 DVA       0.1330
     27 C          41.8375   53.2042   86.9236 C.2         1 DVA       0.2041
     28 O          42.9155   53.3734   87.4885 O.2         1 DVA      -0.3944
     29 CB         41.2064   53.4819   84.5012 C.3         1 DVA       0.0045
     30 CG         42.2329   54.2655   83.6349 C.3         1 DVA       0.0412
     31 CD         43.3208   54.8745   84.3755 C.2         1 DVA       0.1737
     32 OE1        44.4816   54.5845   84.1232 O.2         1 DVA      -0.3973
     33 NE2        43.1016   55.7741   85.3091 N.am        1 DVA      -0.3009
     34 N          40.7024   53.6113   87.4957 N.am        1 DVA      -0.2625
     35 CA         40.4983   54.2771   88.7562 C.3         1 DVA       0.1369
     36 C          40.6177   53.3875   89.9101 C.2         1 DVA       0.2055
     37 O          41.0091   52.2326   89.7773 O.2         1 DVA      -0.3942
     38 CB         41.3767   55.5651   88.8673 C.3         1 DVA       0.0145
     39 CG         40.8611   56.6030   89.7895 C.2         1 DVA      -0.0027
     40 ND1        41.4840   57.0357   90.9009 N.2         1 DVA      -0.3252
     41 CD2        39.6926   57.3391   89.6391 C.2         1 DVA       0.0291
     42 CE1        40.7157   58.0043   91.4287 C.2         1 DVA       0.0907
     43 NE2        39.6269   58.1925   90.6675 N.pl3       1 DVA      -0.2752
     44 N          40.2113   53.8042   91.1070 N.am        1 DVA      -0.2620
     45 CA         40.1532   53.0394   92.3299 C.3         1 DVA       0.1390
     46 C          39.0893   52.0369   92.3216 C.2         1 DVA       0.2058
     47 O          38.4003   51.8666   91.3217 O.2         1 DVA      -0.3942
     48 CB         41.5621   52.4576   92.7049 C.3         1 DVA       0.0163
     49 CG         41.9231   52.6079   94.1503 C.ar        1 DVA      -0.0493
     50 CD1        41.8670   51.5127   95.0450 C.ar        1 DVA      -0.0685
     51 CD2        42.3363   53.8661   94.6491 C.ar        1 DVA      -0.0685
     52 CE1        42.2068   51.6726   96.4018 C.ar        1 DVA      -0.0398
     53 CE2        42.6918   54.0263   96.0002 C.ar        1 DVA      -0.0398
     54 CZ         42.6243   52.9309   96.8848 C.ar        1 DVA       0.0805
     55 OH         42.9644   53.1004   98.1853 O.3         1 DVA      -0.3376
     56 N          38.8338   51.3364   93.4215 N.am        1 DVA      -0.2620
     57 CA         37.7856   50.3667   93.6014 C.3         1 DVA       0.1423
     58 C          38.2493   49.0445   93.1901 C.2         1 DVA       0.2051
     59 O          38.2912   48.8134   91.9862 O.2         1 DVA      -0.3943
     60 CB         37.2357   50.4660   95.0613 C.3         1 DVA       0.0406
     61 CG         36.5293   51.7273   95.3266 C.2         1 DVA       0.0393
     62 OD1        35.3781   52.0108   94.6695 O.co2       1 DVA      -0.5688
     63 OD2        36.9547   52.5688   96.2921 O.co2       1 DVA      -0.5688
     64 N          38.5538   48.0974   94.0707 N.am        1 DVA      -0.2671
     65 CA         38.9182   46.7369   93.7936 C.3         1 DVA       0.1173
     66 C          40.2368   46.4183   94.3931 C.2         1 DVA       0.0623
     67 O          40.8078   45.2051   94.1812 O.co2       1 DVA      -0.5665
     68 OXT        40.9436   47.3249   95.1103 O.co2       1 DVA      -0.5665
     69 CB         37.8006   45.8140   94.3470 C.3         1 DVA       0.0789
     70 OG         37.9734   44.4624   93.9314 O.3         1 DVA      -0.3910
     71 H1         50.7003   50.0390   76.4949 H           1 DVA       0.2015
     72 H2         50.5564   49.2315   77.9491 H           1 DVA       0.2015
     73 H3         52.0679   49.5912   77.3362 H           1 DVA       0.2015
     74 H4         50.0308   51.4245   78.3108 H           1 DVA       0.1101
     75 H5         51.7820   53.2578   77.9650 H           1 DVA       0.0376
     76 H6         53.5632   52.9575   76.2972 H           1 DVA       0.0236
     77 H7         53.1671   51.2384   76.1244 H           1 DVA       0.0236
     78 H8         53.8247   51.8594   77.6505 H           1 DVA       0.0236
     79 H9         49.8111   53.0546   76.4807 H           1 DVA       0.0236
     80 H10        50.7110   51.9641   75.4101 H           1 DVA       0.0236
     81 H11        51.2256   53.6466   75.6066 H           1 DVA       0.0236
     82 H12        50.1844   53.2963   79.8600 H           1 DVA       0.0802
     83 H13        49.7282   53.8869   82.4919 H           1 DVA       0.0313
     84 H14        51.2462   54.3051   81.6689 H           1 DVA       0.0313
     85 H15        50.6996   51.9075   83.4616 H           1 DVA       0.0287
     86 H16        52.0879   53.0331   83.5094 H           1 DVA       0.0287
     87 H17        53.1277   51.9902   81.6685 H           1 DVA       0.0524
     88 H18        52.1512   50.5868   82.1813 H           1 DVA       0.0524
     89 H19        47.9331   53.6474   80.8161 H           1 DVA       0.1881
     90 H20        46.2994   51.4038   80.4391 H           1 DVA       0.0763
     91 H21        45.8120   53.0195   80.9579 H           1 DVA       0.0763
     92 H22        44.4930   50.9883   81.9746 H           1 DVA       0.1884
     93 H23        45.2608   50.8866   84.8140 H           1 DVA       0.0823
     94 H24        44.2351   48.6222   84.8707 H           1 DVA       0.0606
     95 H25        45.6817   48.6864   83.8573 H           1 DVA       0.0606
     96 H26        44.4668   48.6282   82.0553 H           1 DVA       0.2097
     97 H27        43.7974   52.1328   85.8279 H           1 DVA       0.1883
     98 H28        41.0593   51.7116   85.7503 H           1 DVA       0.0801
     99 H29        40.5064   54.2048   84.9324 H           1 DVA       0.0337
    100 H30        40.6132   52.8696   83.8154 H           1 DVA       0.0337
    101 H31        41.6984   55.0429   83.0923 H           1 DVA       0.0504
    102 H32        42.6370   53.5803   82.8823 H           1 DVA       0.0504
    103 H33        43.8504   56.2066   85.7479 H           1 DVA       0.1814
    104 H34        42.1973   56.0653   85.5104 H           1 DVA       0.1814
    105 H35        39.9038   53.4328   86.9839 H           1 DVA       0.1885
    106 H36        39.4568   54.5866   88.7242 H           1 DVA       0.0817
    107 H37        41.4664   56.0351   87.8836 H           1 DVA       0.0420
    108 H38        42.3892   55.2913   89.1834 H           1 DVA       0.0420
    109 H39        39.0073   57.2550   88.8875 H           1 DVA       0.0729
    110 H40        40.9363   58.5271   92.2792 H           1 DVA       0.1199
    111 H41        38.9301   58.8447   90.8245 H           1 DVA       0.2361
    112 H42        39.8504   54.7068   91.1558 H           1 DVA       0.1885
    113 H43        39.8694   53.7766   93.0894 H           1 DVA       0.0821
    114 H44        42.3395   52.9561   92.1128 H           1 DVA       0.0453
    115 H45        41.6158   51.4042   92.4186 H           1 DVA       0.0453
    116 H46        41.5673   50.5897   94.7193 H           1 DVA       0.0530
    117 H47        42.3869   54.6774   94.0223 H           1 DVA       0.0530
    118 H48        42.1615   50.8742   97.0377 H           1 DVA       0.0525
    119 H49        42.9968   54.9372   96.3404 H           1 DVA       0.0525
    120 H50        42.4265   52.4503   98.6922 H           1 DVA       0.2458
    121 H51        39.3886   51.5205   94.1969 H           1 DVA       0.1884
    122 H52        36.9371   50.6186   92.9540 H           1 DVA       0.0819
    123 H53        38.0657   50.3552   95.7675 H           1 DVA       0.0478
    124 H54        36.5329   49.6436   95.2376 H           1 DVA       0.0478
    125 H55        38.4836   48.3290   95.0056 H           1 DVA       0.1876
    126 H56        39.0040   46.5561   92.7154 H           1 DVA       0.0749
    127 H57        36.8304   46.1539   93.9808 H           1 DVA       0.0599
    128 H58        37.7864   45.8471   95.4388 H           1 DVA       0.0599
    129 H59        37.8967   44.4875   92.9518 H           1 DVA       0.2096
@<TRIPOS>BOND
     1     1     2   1
     2     2     3   1
     3     2     6   1
     4     3     4   1
     5     3     5   1
     6     6     7   2
     7     6     8  am
     8     8     9   1
     9     8    12   1
    10     9    10   1
    11     9    13   1
    12    10    11   1
    13    11    12   1
    14    13    14   2
    15    13    15  am
    16    15    16   1
    17    16    17   1
    18    17    18   2
    19    17    19  am
    20    19    20   1
    21    20    21   1
    22    20    23   1
    23    21    22   2
    24    21    25  am
    25    23    24   1
    26    25    26   1
    27    26    27   1
    28    26    29   1
    29    27    28   2
    30    27    34  am
    31    29    30   1
    32    30    31   1
    33    31    32   2
    34    31    33  am
    35    34    35   1
    36    35    36   1
    37    35    38   1
    38    36    37   2
    39    36    44  am
    40    38    39   1
    41    39    40   1
    42    39    41   2
    43    40    42   2
    44    41    43   1
    45    42    43   1
    46    44    45   1
    47    45    46   1
    48    45    48   1
    49    46    47   2
    50    46    56  am
    51    48    49   1
    52    49    50  ar
    53    49    51  ar
    54    50    52  ar
    55    51    53  ar
    56    52    54  ar
    57    53    54  ar
    58    54    55   1
    59    56    57   1
    60    57    58   1
    61    57    60   1
    62    58    59   2
    63    58    64  am
    64    60    61   1
    65    61    62  ar
    66    61    63  ar
    67    64    65   1
    68    65    66   1
    69    65    69   1
    70    66    67  ar
    71    66    68  ar
    72    69    70   1
    73     1    71   1
    74     1    72   1
    75     1    73   1
    76     2    74   1
    77     3    75   1
    78     4    76   1
    79     4    77   1
    80     4    78   1
    81     5    79   1
    82     5    80   1
    83     5    81   1
    84     9    82   1
    85    10    83   1
    86    10    84   1
    87    11    85   1
    88    11    86   1
    89    12    87   1
    90    12    88   1
    91    15    89   1
    92    16    90   1
    93    16    91   1
    94    19    92   1
    95    20    93   1
    96    23    94   1
    97    23    95   1
    98    24    96   1
    99    25    97   1
   100    26    98   1
   101    29    99   1
   102    29   100   1
   103    30   101   1
   104    30   102   1
   105    33   103   1
   106    33   104   1
   107    34   105   1
   108    35   106   1
   109    38   107   1
   110    38   108   1
   111    41   109   1
   112    42   110   1
   113    43   111   1
   114    44   112   1
   115    45   113   1
   116    48   114   1
   117    48   115   1
   118    50   116   1
   119    51   117   1
   120    52   118   1
   121    53   119   1
   122    55   120   1
   123    56   121   1
   124    57   122   1
   125    60   123   1
   126    60   124   1
   127    64   125   1
   128    65   126   1
   129    69   127   1
   130    69   128   1
   131    70   129   1
@<TRIPOS>SUBSTRUCTURE
     1  DVA      2

