@<TRIPOS>MOLECULE
1zea_ligand_019
   129   131
SMALL
GAST_HUCK
****
This file was generated by PARSER (from files_GN.cpp)

@<TRIPOS>ATOM
      1 N          38.4876   54.7450   93.7605 N.4         1 DVA       0.2381
      2 CA         39.8033   55.4129   93.7574 C.3         1 DVA       0.0675
      3 CB         40.6645   54.9559   94.9904 C.3         1 DVA       0.0139
      4 CG1        42.1717   55.2977   94.8076 C.3         1 DVA      -0.0553
      5 CG2        40.1618   55.4603   96.3726 C.3         1 DVA      -0.0553
      6 C          39.6238   56.8673   93.6347 C.2         1 DVA       0.2295
      7 O          38.8404   57.3669   94.4341 O.2         1 DVA      -0.3905
      8 N          40.2489   57.6813   92.7596 N.am        1 DVA      -0.2471
      9 CA         41.1915   57.2754   91.7449 C.3         1 DVA       0.1339
     10 CB         41.9561   58.5781   91.3924 C.3         1 DVA      -0.0104
     11 CG         40.9435   59.6958   91.6720 C.3         1 DVA      -0.0281
     12 CD         40.0770   59.1111   92.7987 C.3         1 DVA       0.0371
     13 C          40.5323   56.6813   90.5801 C.2         1 DVA       0.2039
     14 O          39.7786   57.3765   89.9067 O.2         1 DVA      -0.3944
     15 N          40.7727   55.4207   90.2337 N.am        1 DVA      -0.2664
     16 CA         40.2787   54.7629   89.0601 C.3         1 DVA       0.1201
     17 C          40.8302   55.2354   87.8008 C.2         1 DVA       0.2008
     18 O          41.5928   56.1946   87.7683 O.2         1 DVA      -0.3947
     19 N          40.5001   54.5843   86.6892 N.am        1 DVA      -0.2618
     20 CA         40.8860   54.9305   85.3506 C.3         1 DVA       0.1539
     21 C          42.2926   54.6287   85.1163 C.2         1 DVA       0.2062
     22 O          43.0731   55.5238   84.8093 O.2         1 DVA      -0.3943
     23 CB         39.9649   54.2409   84.3018 C.3         1 DVA       0.0843
     24 OG         40.3715   52.9133   83.9805 O.3         1 DVA      -0.3903
     25 N          42.7229   53.3918   85.3247 N.am        1 DVA      -0.2635
     26 CA         44.0600   52.8939   85.2215 C.3         1 DVA       0.1330
     27 C          44.5458   52.7322   86.5881 C.2         1 DVA       0.2041
     28 O          45.4846   53.4241   86.9645 O.2         1 DVA      -0.3944
     29 CB         44.0517   51.5596   84.4064 C.3         1 DVA       0.0045
     30 CG         44.0987   51.6673   82.8477 C.3         1 DVA       0.0412
     31 CD         43.6501   52.9242   82.2729 C.2         1 DVA       0.1737
     32 OE1        44.4242   53.8832   82.2417 O.2         1 DVA      -0.3973
     33 NE2        42.4708   53.0705   81.7144 N.am        1 DVA      -0.3009
     34 N          43.9030   51.9382   87.4411 N.am        1 DVA      -0.2625
     35 CA         44.2289   51.7254   88.8329 C.3         1 DVA       0.1369
     36 C          45.6686   51.4836   89.0124 C.2         1 DVA       0.2055
     37 O          46.3160   52.0151   89.9103 O.2         1 DVA      -0.3942
     38 CB         43.5557   52.8373   89.7208 C.3         1 DVA       0.0145
     39 CG         42.5248   52.3351   90.6623 C.2         1 DVA      -0.0027
     40 ND1        42.2503   52.8558   91.8783 N.2         1 DVA      -0.3252
     41 CD2        41.6012   51.3318   90.4204 C.2         1 DVA       0.0291
     42 CE1        41.2011   52.1887   92.3661 C.2         1 DVA       0.0907
     43 NE2        40.7917   51.2589   91.4882 N.pl3       1 DVA      -0.2752
     44 N          46.2587   50.6607   88.1594 N.am        1 DVA      -0.2620
     45 CA         47.6274   50.2077   88.1333 C.3         1 DVA       0.1390
     46 C          47.9897   49.4477   89.3476 C.2         1 DVA       0.2058
     47 O          47.1650   49.2261   90.2223 O.2         1 DVA      -0.3942
     48 CB         47.9694   49.4126   86.8060 C.3         1 DVA       0.0163
     49 CG         46.9097   49.2089   85.7726 C.ar        1 DVA      -0.0493
     50 CD1        47.1322   49.5221   84.4055 C.ar        1 DVA      -0.0685
     51 CD2        45.7111   48.5458   86.1155 C.ar        1 DVA      -0.0685
     52 CE1        46.1739   49.2176   83.4348 C.ar        1 DVA      -0.0398
     53 CE2        44.7242   48.2753   85.1455 C.ar        1 DVA      -0.0398
     54 CZ         44.9595   48.5961   83.8034 C.ar        1 DVA       0.0805
     55 OH         44.0042   48.3180   82.8815 O.3         1 DVA      -0.3376
     56 N          49.2210   48.9644   89.4556 N.am        1 DVA      -0.2620
     57 CA         49.7533   48.0962   90.4781 C.3         1 DVA       0.1423
     58 C          48.8640   46.9848   90.8409 C.2         1 DVA       0.2051
     59 O          47.8674   46.7534   90.1638 O.2         1 DVA      -0.3943
     60 CB         51.1405   47.6018   89.9658 C.3         1 DVA       0.0406
     61 CG         51.8518   46.6726   90.8592 C.2         1 DVA       0.0393
     62 OD1        53.0190   47.0237   91.4516 O.co2       1 DVA      -0.5688
     63 OD2        51.4860   45.3687   90.8930 O.co2       1 DVA      -0.5688
     64 N          49.1326   46.2642   91.9184 N.am        1 DVA      -0.2671
     65 CA         48.3717   45.1903   92.5054 C.3         1 DVA       0.1173
     66 C          46.9780   45.6117   92.7766 C.2         1 DVA       0.0623
     67 O          46.5894   45.9364   94.0324 O.co2       1 DVA      -0.5665
     68 OXT        46.0497   45.6589   91.7966 O.co2       1 DVA      -0.5665
     69 CB         48.4308   43.8656   91.6955 C.3         1 DVA       0.0789
     70 OG         49.7497   43.3298   91.6905 O.3         1 DVA      -0.3910
     71 H1         38.6160   53.7327   93.8121 H           1 DVA       0.2015
     72 H2         37.9943   54.9781   92.8963 H           1 DVA       0.2015
     73 H3         37.9344   55.0596   94.5609 H           1 DVA       0.2015
     74 H4         40.2910   55.0149   92.8677 H           1 DVA       0.1101
     75 H5         40.6044   53.8611   95.0247 H           1 DVA       0.0376
     76 H6         42.7536   54.9081   95.6449 H           1 DVA       0.0236
     77 H7         42.3177   56.3779   94.7545 H           1 DVA       0.0236
     78 H8         42.5555   54.8443   93.8904 H           1 DVA       0.0236
     79 H9         39.0983   55.2523   96.4956 H           1 DVA       0.0236
     80 H10        40.3271   56.5339   96.4801 H           1 DVA       0.0236
     81 H11        40.6998   54.9517   97.1762 H           1 DVA       0.0236
     82 H12        41.9285   56.5835   92.1650 H           1 DVA       0.0802
     83 H13        42.3150   58.6043   90.3584 H           1 DVA       0.0313
     84 H14        42.8166   58.6967   92.0591 H           1 DVA       0.0313
     85 H15        40.3352   59.8855   90.7834 H           1 DVA       0.0287
     86 H16        41.4358   60.6249   91.9709 H           1 DVA       0.0287
     87 H17        40.4148   59.4984   93.7649 H           1 DVA       0.0524
     88 H18        39.0293   59.3859   92.6489 H           1 DVA       0.0524
     89 H19        41.3321   54.8979   90.8302 H           1 DVA       0.1881
     90 H20        39.1886   54.8348   89.0375 H           1 DVA       0.0763
     91 H21        40.5259   53.7079   89.1544 H           1 DVA       0.0763
     92 H22        39.9063   53.8285   86.7870 H           1 DVA       0.1884
     93 H23        40.7224   56.0064   85.2357 H           1 DVA       0.0823
     94 H24        39.9594   54.8210   83.3765 H           1 DVA       0.0606
     95 H25        38.9423   54.1988   84.6764 H           1 DVA       0.0606
     96 H26        40.1149   52.3756   84.7603 H           1 DVA       0.2097
     97 H27        42.0660   52.7481   85.6383 H           1 DVA       0.1883
     98 H28        44.7182   53.5991   84.7028 H           1 DVA       0.0801
     99 H29        43.1759   50.9637   84.6779 H           1 DVA       0.0337
    100 H30        44.9242   50.9710   84.7013 H           1 DVA       0.0337
    101 H31        43.4926   50.8502   82.4330 H           1 DVA       0.0504
    102 H32        45.1261   51.4804   82.5108 H           1 DVA       0.0504
    103 H33        42.2126   53.9318   81.3420 H           1 DVA       0.1814
    104 H34        41.8401   52.3270   81.6897 H           1 DVA       0.1814
    105 H35        43.1335   51.4420   87.1035 H           1 DVA       0.1885
    106 H36        43.7556   50.7703   89.0828 H           1 DVA       0.0817
    107 H37        43.0491   53.5683   89.0861 H           1 DVA       0.0420
    108 H38        44.2995   53.4007   90.2878 H           1 DVA       0.0420
    109 H39        41.5242   50.7536   89.5777 H           1 DVA       0.0729
    110 H40        40.7697   52.3537   93.2754 H           1 DVA       0.1199
    111 H41        40.0487   50.6511   91.6026 H           1 DVA       0.2361
    112 H42        45.6835   50.3313   87.4565 H           1 DVA       0.1885
    113 H43        48.2549   51.1058   88.1454 H           1 DVA       0.0821
    114 H44        48.3368   48.4070   87.0430 H           1 DVA       0.0453
    115 H45        48.8249   49.9191   86.3462 H           1 DVA       0.0453
    116 H46        47.9975   49.9813   84.1203 H           1 DVA       0.0530
    117 H47        45.5463   48.2425   87.0758 H           1 DVA       0.0530
    118 H48        46.3607   49.4283   82.4539 H           1 DVA       0.0525
    119 H49        43.8598   47.8034   85.4256 H           1 DVA       0.0525
    120 H50        44.4646   48.2238   82.0232 H           1 DVA       0.2458
    121 H51        49.8291   49.1838   88.7323 H           1 DVA       0.1884
    122 H52        49.9091   48.7143   91.3683 H           1 DVA       0.0819
    123 H53        51.7815   48.4776   89.8013 H           1 DVA       0.0478
    124 H54        51.0154   47.1136   88.9933 H           1 DVA       0.0478
    125 H55        49.9630   46.4744   92.3766 H           1 DVA       0.1876
    126 H56        48.8459   44.9866   93.4706 H           1 DVA       0.0749
    127 H57        48.1269   44.0396   90.6615 H           1 DVA       0.0599
    128 H58        47.7601   43.1263   92.1338 H           1 DVA       0.0599
    129 H59        49.8192   42.8454   90.8411 H           1 DVA       0.2096
@<TRIPOS>BOND
     1     1     2   1
     2     2     3   1
     3     2     6   1
     4     3     4   1
     5     3     5   1
     6     6     7   2
     7     6     8  am
     8     8     9   1
     9     8    12   1
    10     9    10   1
    11     9    13   1
    12    10    11   1
    13    11    12   1
    14    13    14   2
    15    13    15  am
    16    15    16   1
    17    16    17   1
    18    17    18   2
    19    17    19  am
    20    19    20   1
    21    20    21   1
    22    20    23   1
    23    21    22   2
    24    21    25  am
    25    23    24   1
    26    25    26   1
    27    26    27   1
    28    26    29   1
    29    27    28   2
    30    27    34  am
    31    29    30   1
    32    30    31   1
    33    31    32   2
    34    31    33  am
    35    34    35   1
    36    35    36   1
    37    35    38   1
    38    36    37   2
    39    36    44  am
    40    38    39   1
    41    39    40   1
    42    39    41   2
    43    40    42   2
    44    41    43   1
    45    42    43   1
    46    44    45   1
    47    45    46   1
    48    45    48   1
    49    46    47   2
    50    46    56  am
    51    48    49   1
    52    49    50  ar
    53    49    51  ar
    54    50    52  ar
    55    51    53  ar
    56    52    54  ar
    57    53    54  ar
    58    54    55   1
    59    56    57   1
    60    57    58   1
    61    57    60   1
    62    58    59   2
    63    58    64  am
    64    60    61   1
    65    61    62  ar
    66    61    63  ar
    67    64    65   1
    68    65    66   1
    69    65    69   1
    70    66    67  ar
    71    66    68  ar
    72    69    70   1
    73     1    71   1
    74     1    72   1
    75     1    73   1
    76     2    74   1
    77     3    75   1
    78     4    76   1
    79     4    77   1
    80     4    78   1
    81     5    79   1
    82     5    80   1
    83     5    81   1
    84     9    82   1
    85    10    83   1
    86    10    84   1
    87    11    85   1
    88    11    86   1
    89    12    87   1
    90    12    88   1
    91    15    89   1
    92    16    90   1
    93    16    91   1
    94    19    92   1
    95    20    93   1
    96    23    94   1
    97    23    95   1
    98    24    96   1
    99    25    97   1
   100    26    98   1
   101    29    99   1
   102    29   100   1
   103    30   101   1
   104    30   102   1
   105    33   103   1
   106    33   104   1
   107    34   105   1
   108    35   106   1
   109    38   107   1
   110    38   108   1
   111    41   109   1
   112    42   110   1
   113    43   111   1
   114    44   112   1
   115    45   113   1
   116    48   114   1
   117    48   115   1
   118    50   116   1
   119    51   117   1
   120    52   118   1
   121    53   119   1
   122    55   120   1
   123    56   121   1
   124    57   122   1
   125    60   123   1
   126    60   124   1
   127    64   125   1
   128    65   126   1
   129    69   127   1
   130    69   128   1
   131    70   129   1
@<TRIPOS>SUBSTRUCTURE
     1  DVA      2

