@<TRIPOS>MOLECULE
1zea_ligand_069
   129   131
SMALL
GAST_HUCK
****
This file was generated by PARSER (from files_GN.cpp)

@<TRIPOS>ATOM
      1 N          39.4508   55.7143   93.3768 N.4         1 DVA       0.2381
      2 CA         39.8499   54.3402   93.7410 C.3         1 DVA       0.0675
      3 CB         38.7197   53.5792   94.5216 C.3         1 DVA       0.0139
      4 CG1        38.2414   54.2862   95.8258 C.3         1 DVA      -0.0553
      5 CG2        37.4948   53.2790   93.6133 C.3         1 DVA      -0.0553
      6 C          41.1418   54.3720   94.4356 C.2         1 DVA       0.2295
      7 O          41.2049   55.1404   95.3928 O.2         1 DVA      -0.3905
      8 N          42.2368   53.6470   94.1201 N.am        1 DVA      -0.2471
      9 CA         42.3506   52.6755   93.0539 C.3         1 DVA       0.1339
     10 CB         43.6219   51.8635   93.4057 C.3         1 DVA      -0.0104
     11 CG         44.4814   52.8373   94.2206 C.3         1 DVA      -0.0281
     12 CD         43.4385   53.7302   94.9109 C.3         1 DVA       0.0371
     13 C          42.4305   53.2879   91.7274 C.2         1 DVA       0.2039
     14 O          43.2449   54.1833   91.5332 O.2         1 DVA      -0.3944
     15 N          41.6347   52.8700   90.7482 N.am        1 DVA      -0.2664
     16 CA         41.5332   53.4251   89.4324 C.3         1 DVA       0.1201
     17 C          42.7045   53.1993   88.6022 C.2         1 DVA       0.2008
     18 O          43.3467   54.1639   88.2078 O.2         1 DVA      -0.3947
     19 N          43.0246   51.9611   88.2426 N.am        1 DVA      -0.2618
     20 CA         44.1332   51.5280   87.4305 C.3         1 DVA       0.1539
     21 C          44.1820   52.1674   86.1117 C.2         1 DVA       0.2062
     22 O          45.1450   52.8591   85.8043 O.2         1 DVA      -0.3943
     23 CB         45.4650   51.5497   88.2422 C.3         1 DVA       0.0843
     24 OG         45.9339   52.8626   88.5440 O.3         1 DVA      -0.3903
     25 N          43.2129   51.9314   85.2302 N.am        1 DVA      -0.2635
     26 CA         43.2012   52.3220   83.8389 C.3         1 DVA       0.1330
     27 C          43.8861   51.2874   83.0617 C.2         1 DVA       0.2041
     28 O          43.2317   50.3909   82.5490 O.2         1 DVA      -0.3944
     29 CB         41.7388   52.5908   83.3461 C.3         1 DVA       0.0045
     30 CG         41.2107   54.0159   83.6695 C.3         1 DVA       0.0412
     31 CD         39.8683   54.2269   83.1605 C.2         1 DVA       0.1737
     32 OE1        39.6853   54.7111   82.0519 O.2         1 DVA      -0.3973
     33 NE2        38.8088   53.8222   83.8310 N.am        1 DVA      -0.3009
     34 N          45.2150   51.2748   82.9803 N.am        1 DVA      -0.2625
     35 CA         46.0324   50.3111   82.2722 C.3         1 DVA       0.1369
     36 C          47.1748   50.9750   81.6402 C.2         1 DVA       0.2055
     37 O          47.4546   50.7139   80.4737 O.2         1 DVA      -0.3942
     38 CB         46.5363   49.1609   83.1983 C.3         1 DVA       0.0145
     39 CG         45.4705   48.5429   84.0232 C.2         1 DVA      -0.0027
     40 ND1        44.3892   47.8705   83.5770 N.2         1 DVA      -0.3252
     41 CD2        45.3951   48.5717   85.4112 C.2         1 DVA       0.0291
     42 CE1        43.6760   47.5002   84.6543 C.2         1 DVA       0.0907
     43 NE2        44.2856   47.9197   85.7676 N.pl3       1 DVA      -0.2752
     44 N          47.9363   51.7986   82.3490 N.am        1 DVA      -0.2620
     45 CA         49.1477   52.4543   81.9337 C.3         1 DVA       0.1390
     46 C          48.9627   53.3144   80.7622 C.2         1 DVA       0.2058
     47 O          48.0201   54.0945   80.7465 O.2         1 DVA      -0.3942
     48 CB         49.7303   53.2732   83.1279 C.3         1 DVA       0.0163
     49 CG         50.3662   52.4182   84.1692 C.ar        1 DVA      -0.0493
     50 CD1        51.7403   52.0897   84.0840 C.ar        1 DVA      -0.0685
     51 CD2        49.6195   51.9082   85.2579 C.ar        1 DVA      -0.0685
     52 CE1        52.3565   51.2969   85.0736 C.ar        1 DVA      -0.0398
     53 CE2        50.2320   51.1069   86.2423 C.ar        1 DVA      -0.0398
     54 CZ         51.6059   50.8056   86.1564 C.ar        1 DVA       0.0805
     55 OH         52.2270   50.0497   87.1031 O.3         1 DVA      -0.3376
     56 N          49.9027   53.3109   79.8182 N.am        1 DVA      -0.2620
     57 CA         50.1084   54.1169   78.6463 C.3         1 DVA       0.1423
     58 C          50.3665   53.1979   77.5447 C.2         1 DVA       0.2051
     59 O          49.4509   52.5056   77.1155 O.2         1 DVA      -0.3943
     60 CB         49.0322   55.1865   78.2728 C.3         1 DVA       0.0406
     61 CG         49.3707   55.9875   77.0753 C.2         1 DVA       0.0393
     62 OD1        48.5798   55.9432   75.9726 O.co2       1 DVA      -0.5688
     63 OD2        50.4996   56.7266   77.0391 O.co2       1 DVA      -0.5688
     64 N          51.5801   53.1353   77.0063 N.am        1 DVA      -0.2671
     65 CA         51.9966   52.3388   75.8894 C.3         1 DVA       0.1173
     66 C          53.2979   52.8607   75.4214 C.2         1 DVA       0.0623
     67 O          53.4298   53.3387   74.1602 O.co2       1 DVA      -0.5665
     68 OXT        54.3786   52.8757   76.2268 O.co2       1 DVA      -0.5665
     69 CB         52.1133   50.8255   76.2245 C.3         1 DVA       0.0789
     70 OG         50.8305   50.2307   76.4076 O.3         1 DVA      -0.3910
     71 H1         38.6128   55.6871   92.7948 H           1 DVA       0.2015
     72 H2         40.2044   56.1649   92.8491 H           1 DVA       0.2015
     73 H3         39.2593   56.2612   94.2197 H           1 DVA       0.2015
     74 H4         39.9711   53.8319   92.7861 H           1 DVA       0.1101
     75 H5         39.1270   52.6110   94.8217 H           1 DVA       0.0376
     76 H6         37.4642   53.6944   96.3197 H           1 DVA       0.0236
     77 H7         37.8283   55.2763   95.6080 H           1 DVA       0.0236
     78 H8         39.0618   54.3995   96.5390 H           1 DVA       0.0236
     79 H9         37.8037   52.7236   92.7280 H           1 DVA       0.0236
     80 H10        37.0090   54.2024   93.2936 H           1 DVA       0.0236
     81 H11        36.7615   52.6714   94.1472 H           1 DVA       0.0236
     82 H12        41.5053   51.9844   93.1058 H           1 DVA       0.0802
     83 H13        44.1627   51.4930   92.5306 H           1 DVA       0.0313
     84 H14        43.3580   51.0091   94.0365 H           1 DVA       0.0313
     85 H15        45.1105   53.4351   93.5517 H           1 DVA       0.0287
     86 H16        45.1198   52.3169   94.9424 H           1 DVA       0.0287
     87 H17        43.2437   53.3624   95.9239 H           1 DVA       0.0524
     88 H18        43.8108   54.7581   94.9671 H           1 DVA       0.0524
     89 H19        41.0126   52.1562   90.9620 H           1 DVA       0.1881
     90 H20        41.3108   54.4927   89.5208 H           1 DVA       0.0763
     91 H21        40.6754   52.9632   88.9366 H           1 DVA       0.0763
     92 H22        42.4454   51.2532   88.5687 H           1 DVA       0.1884
     93 H23        43.9539   50.4642   87.2413 H           1 DVA       0.0823
     94 H24        46.2500   51.0467   87.6732 H           1 DVA       0.0606
     95 H25        45.3316   51.0003   89.1777 H           1 DVA       0.0606
     96 H26        45.2646   53.2585   89.1394 H           1 DVA       0.2097
     97 H27        42.4928   51.3468   85.5297 H           1 DVA       0.1883
     98 H28        43.7535   53.2587   83.7012 H           1 DVA       0.0801
     99 H29        41.0653   51.8485   83.7876 H           1 DVA       0.0337
    100 H30        41.6909   52.4680   82.2574 H           1 DVA       0.0337
    101 H31        41.8783   54.7523   83.2131 H           1 DVA       0.0504
    102 H32        41.2289   54.1818   84.7509 H           1 DVA       0.0504
    103 H33        37.9213   53.9351   83.4542 H           1 DVA       0.1814
    104 H34        38.9132   53.4048   84.6993 H           1 DVA       0.1814
    105 H35        45.6851   51.9685   83.4694 H           1 DVA       0.1885
    106 H36        45.4310   49.8463   81.4802 H           1 DVA       0.0817
    107 H37        47.3246   49.5376   83.8577 H           1 DVA       0.0420
    108 H38        46.9820   48.3783   82.5781 H           1 DVA       0.0420
    109 H39        46.0573   49.0138   86.0494 H           1 DVA       0.0729
    110 H40        42.7958   46.9839   84.6333 H           1 DVA       0.1199
    111 H41        43.9692   47.7771   86.6694 H           1 DVA       0.2361
    112 H42        47.6565   51.9564   83.2653 H           1 DVA       0.1885
    113 H43        49.8668   51.6658   81.6866 H           1 DVA       0.0821
    114 H44        48.9436   53.8832   83.5810 H           1 DVA       0.0453
    115 H45        50.4789   53.9784   82.7580 H           1 DVA       0.0453
    116 H46        52.3074   52.4296   83.3063 H           1 DVA       0.0530
    117 H47        48.6225   52.1203   85.3479 H           1 DVA       0.0530
    118 H48        53.3541   51.0775   85.0007 H           1 DVA       0.0525
    119 H49        49.6749   50.7444   87.0216 H           1 DVA       0.0525
    120 H50        51.5229   49.7370   87.7119 H           1 DVA       0.2458
    121 H51        50.6178   52.6746   79.9738 H           1 DVA       0.1884
    122 H52        51.0181   54.6789   78.8686 H           1 DVA       0.0819
    123 H53        48.9186   55.8961   79.0988 H           1 DVA       0.0478
    124 H54        48.0659   54.6981   78.1184 H           1 DVA       0.0478
    125 H55        52.2469   53.7267   77.3893 H           1 DVA       0.1876
    126 H56        51.2744   52.4542   75.0771 H           1 DVA       0.0749
    127 H57        52.7035   50.6744   77.1329 H           1 DVA       0.0599
    128 H58        52.6011   50.2967   75.4002 H           1 DVA       0.0599
    129 H59        51.0112   49.2813   76.5860 H           1 DVA       0.2096
@<TRIPOS>BOND
     1     1     2   1
     2     2     3   1
     3     2     6   1
     4     3     4   1
     5     3     5   1
     6     6     7   2
     7     6     8  am
     8     8     9   1
     9     8    12   1
    10     9    10   1
    11     9    13   1
    12    10    11   1
    13    11    12   1
    14    13    14   2
    15    13    15  am
    16    15    16   1
    17    16    17   1
    18    17    18   2
    19    17    19  am
    20    19    20   1
    21    20    21   1
    22    20    23   1
    23    21    22   2
    24    21    25  am
    25    23    24   1
    26    25    26   1
    27    26    27   1
    28    26    29   1
    29    27    28   2
    30    27    34  am
    31    29    30   1
    32    30    31   1
    33    31    32   2
    34    31    33  am
    35    34    35   1
    36    35    36   1
    37    35    38   1
    38    36    37   2
    39    36    44  am
    40    38    39   1
    41    39    40   1
    42    39    41   2
    43    40    42   2
    44    41    43   1
    45    42    43   1
    46    44    45   1
    47    45    46   1
    48    45    48   1
    49    46    47   2
    50    46    56  am
    51    48    49   1
    52    49    50  ar
    53    49    51  ar
    54    50    52  ar
    55    51    53  ar
    56    52    54  ar
    57    53    54  ar
    58    54    55   1
    59    56    57   1
    60    57    58   1
    61    57    60   1
    62    58    59   2
    63    58    64  am
    64    60    61   1
    65    61    62  ar
    66    61    63  ar
    67    64    65   1
    68    65    66   1
    69    65    69   1
    70    66    67  ar
    71    66    68  ar
    72    69    70   1
    73     1    71   1
    74     1    72   1
    75     1    73   1
    76     2    74   1
    77     3    75   1
    78     4    76   1
    79     4    77   1
    80     4    78   1
    81     5    79   1
    82     5    80   1
    83     5    81   1
    84     9    82   1
    85    10    83   1
    86    10    84   1
    87    11    85   1
    88    11    86   1
    89    12    87   1
    90    12    88   1
    91    15    89   1
    92    16    90   1
    93    16    91   1
    94    19    92   1
    95    20    93   1
    96    23    94   1
    97    23    95   1
    98    24    96   1
    99    25    97   1
   100    26    98   1
   101    29    99   1
   102    29   100   1
   103    30   101   1
   104    30   102   1
   105    33   103   1
   106    33   104   1
   107    34   105   1
   108    35   106   1
   109    38   107   1
   110    38   108   1
   111    41   109   1
   112    42   110   1
   113    43   111   1
   114    44   112   1
   115    45   113   1
   116    48   114   1
   117    48   115   1
   118    50   116   1
   119    51   117   1
   120    52   118   1
   121    53   119   1
   122    55   120   1
   123    56   121   1
   124    57   122   1
   125    60   123   1
   126    60   124   1
   127    64   125   1
   128    65   126   1
   129    69   127   1
   130    69   128   1
   131    70   129   1
@<TRIPOS>SUBSTRUCTURE
     1  DVA      2

