@<TRIPOS>MOLECULE
1zea_ligand_089
   129   131
SMALL
GAST_HUCK
****
This file was generated by PARSER (from files_GN.cpp)

@<TRIPOS>ATOM
      1 N          46.5652   47.6129   92.1803 N.4         1 DVA       0.2381
      2 CA         47.0341   48.9904   92.4516 C.3         1 DVA       0.0675
      3 CB         48.4829   48.9600   93.0660 C.3         1 DVA       0.0139
      4 CG1        49.5527   48.5946   91.9890 C.3         1 DVA      -0.0553
      5 CG2        48.8810   50.2974   93.7620 C.3         1 DVA      -0.0553
      6 C          46.0398   49.6534   93.3054 C.2         1 DVA       0.2295
      7 O          45.6711   48.9993   94.2773 O.2         1 DVA      -0.3905
      8 N          45.5995   50.9210   93.1713 N.am        1 DVA      -0.2471
      9 CA         45.9254   51.8381   92.0987 C.3         1 DVA       0.1339
     10 CB         45.4491   53.2437   92.5662 C.3         1 DVA      -0.0104
     11 CG         45.1814   53.0643   94.0627 C.3         1 DVA      -0.0281
     12 CD         44.8154   51.5771   94.1846 C.3         1 DVA       0.0371
     13 C          45.3239   51.4593   90.8196 C.2         1 DVA       0.2039
     14 O          46.0584   51.2202   89.8693 O.2         1 DVA      -0.3944
     15 N          44.0024   51.4492   90.6941 N.am        1 DVA      -0.2664
     16 CA         43.2494   51.1895   89.5084 C.3         1 DVA       0.1201
     17 C          42.5696   52.4036   89.1023 C.2         1 DVA       0.2008
     18 O          43.2301   53.2680   88.5367 O.2         1 DVA      -0.3947
     19 N          41.2588   52.5369   89.2728 N.am        1 DVA      -0.2618
     20 CA         40.4535   53.6476   88.8393 C.3         1 DVA       0.1539
     21 C          40.7712   54.0688   87.4713 C.2         1 DVA       0.2062
     22 O          40.6377   55.2547   87.1994 O.2         1 DVA      -0.3943
     23 CB         38.9504   53.2959   88.9870 C.3         1 DVA       0.0843
     24 OG         38.5922   53.0486   90.3437 O.3         1 DVA      -0.3903
     25 N          41.2695   53.2090   86.5852 N.am        1 DVA      -0.2635
     26 CA         41.8035   53.5259   85.2856 C.3         1 DVA       0.1330
     27 C          42.9567   52.6591   85.0439 C.2         1 DVA       0.2041
     28 O          42.8355   51.6768   84.3256 O.2         1 DVA      -0.3944
     29 CB         40.6623   53.4533   84.2255 C.3         1 DVA       0.0045
     30 CG         41.1281   53.8081   82.7826 C.3         1 DVA       0.0412
     31 CD         40.0923   53.7933   81.7679 C.2         1 DVA       0.1737
     32 OE1        38.8980   53.7426   82.0385 O.2         1 DVA      -0.3973
     33 NE2        40.4201   53.8516   80.4945 N.am        1 DVA      -0.3009
     34 N          44.1402   52.9931   85.5475 N.am        1 DVA      -0.2625
     35 CA         45.4263   52.4273   85.2181 C.3         1 DVA       0.1369
     36 C          46.4237   53.4461   85.5329 C.2         1 DVA       0.2055
     37 O          47.3425   53.2286   86.3151 O.2         1 DVA      -0.3942
     38 CB         45.6904   51.0221   85.8668 C.3         1 DVA       0.0145
     39 CG         45.3022   49.8690   85.0237 C.2         1 DVA      -0.0027
     40 ND1        44.5564   48.8227   85.4191 N.2         1 DVA      -0.3252
     41 CD2        45.6574   49.6559   83.6968 C.2         1 DVA       0.0291
     42 CE1        44.4304   48.0008   84.3611 C.2         1 DVA       0.0907
     43 NE2        45.1039   48.5054   83.3138 N.pl3       1 DVA      -0.2752
     44 N          46.3343   54.6190   84.9085 N.am        1 DVA      -0.2620
     45 CA         47.2769   55.7006   84.9198 C.3         1 DVA       0.1390
     46 C          47.9306   55.7541   83.6186 C.2         1 DVA       0.2058
     47 O          49.1537   55.7084   83.5560 O.2         1 DVA      -0.3942
     48 CB         46.5749   57.0506   85.2675 C.3         1 DVA       0.0163
     49 CG         45.8729   57.0572   86.5861 C.ar        1 DVA      -0.0493
     50 CD1        46.5396   56.6400   87.7592 C.ar        1 DVA      -0.0685
     51 CD2        44.5169   57.4620   86.6838 C.ar        1 DVA      -0.0685
     52 CE1        45.8835   56.6361   88.9992 C.ar        1 DVA      -0.0398
     53 CE2        43.8653   57.4715   87.9254 C.ar        1 DVA      -0.0398
     54 CZ         44.5326   57.0403   89.0843 C.ar        1 DVA       0.0805
     55 OH         43.9106   57.0275   90.2942 O.3         1 DVA      -0.3376
     56 N          47.1956   55.8570   82.5175 N.am        1 DVA      -0.2620
     57 CA         47.6509   55.9693   81.1646 C.3         1 DVA       0.1423
     58 C          48.3796   54.7685   80.7520 C.2         1 DVA       0.2051
     59 O          49.5674   54.7030   81.0381 O.2         1 DVA      -0.3943
     60 CB         46.4063   56.3267   80.2976 C.3         1 DVA       0.0406
     61 CG         46.5734   56.2666   78.8332 C.2         1 DVA       0.0393
     62 OD1        47.7837   56.1486   78.2410 O.co2       1 DVA      -0.5688
     63 OD2        45.4812   56.3568   78.0440 O.co2       1 DVA      -0.5688
     64 N          47.7748   53.7637   80.1229 N.am        1 DVA      -0.2671
     65 CA         48.3031   52.4921   79.7063 C.3         1 DVA       0.1173
     66 C          49.4175   52.5939   78.7284 C.2         1 DVA       0.0623
     67 O          50.6157   53.1303   79.0598 O.co2       1 DVA      -0.5665
     68 OXT        49.3332   51.9906   77.5169 O.co2       1 DVA      -0.5665
     69 CB         48.6504   51.5636   80.8978 C.3         1 DVA       0.0789
     70 OG         49.6939   52.0787   81.7188 O.3         1 DVA      -0.3910
     71 H1         47.1472   47.1831   91.4539 H           1 DVA       0.2015
     72 H2         45.5924   47.6282   91.8657 H           1 DVA       0.2015
     73 H3         46.6302   47.0545   93.0416 H           1 DVA       0.2015
     74 H4         47.0876   49.4756   91.4782 H           1 DVA       0.1101
     75 H5         48.5149   48.1650   93.8294 H           1 DVA       0.0376
     76 H6         49.5664   49.3656   91.2049 H           1 DVA       0.0236
     77 H7         49.3386   47.6216   91.5299 H           1 DVA       0.0236
     78 H8         50.5473   48.5382   92.4492 H           1 DVA       0.0236
     79 H9         48.7547   51.1374   93.0650 H           1 DVA       0.0236
     80 H10        49.9287   50.2595   94.0872 H           1 DVA       0.0236
     81 H11        48.2524   50.4613   94.6460 H           1 DVA       0.0236
     82 H12        47.0183   51.8885   92.0125 H           1 DVA       0.0802
     83 H13        44.5226   53.5676   92.0836 H           1 DVA       0.0313
     84 H14        46.2081   54.0104   92.3922 H           1 DVA       0.0313
     85 H15        44.3727   53.7065   94.4199 H           1 DVA       0.0287
     86 H16        46.0892   53.2726   94.6376 H           1 DVA       0.0287
     87 H17        45.0386   51.2354   95.2022 H           1 DVA       0.0524
     88 H18        43.7492   51.4187   93.9835 H           1 DVA       0.0524
     89 H19        43.4874   51.7016   91.4761 H           1 DVA       0.1881
     90 H20        42.5282   50.3973   89.7315 H           1 DVA       0.0763
     91 H21        43.8772   50.8355   88.6860 H           1 DVA       0.0763
     92 H22        40.8078   51.8128   89.7416 H           1 DVA       0.1884
     93 H23        40.6576   54.4745   89.5302 H           1 DVA       0.0823
     94 H24        38.7104   52.4021   88.4121 H           1 DVA       0.0606
     95 H25        38.3303   54.1133   88.6239 H           1 DVA       0.0606
     96 H26        38.1368   53.8615   90.6461 H           1 DVA       0.2097
     97 H27        41.3043   52.2720   86.8491 H           1 DVA       0.1883
     98 H28        42.1655   54.5666   85.2709 H           1 DVA       0.0801
     99 H29        39.8725   54.1586   84.5230 H           1 DVA       0.0337
    100 H30        40.2234   52.4480   84.2363 H           1 DVA       0.0337
    101 H31        41.9026   53.1018   82.4787 H           1 DVA       0.0504
    102 H32        41.5695   54.8099   82.7981 H           1 DVA       0.0504
    103 H33        39.7208   53.8579   79.8185 H           1 DVA       0.1814
    104 H34        41.3550   53.8924   80.2209 H           1 DVA       0.1814
    105 H35        44.1509   53.7881   86.1037 H           1 DVA       0.1885
    106 H36        45.4706   52.3062   84.1288 H           1 DVA       0.0817
    107 H37        45.1800   50.9723   86.8318 H           1 DVA       0.0420
    108 H38        46.7594   50.8945   86.0659 H           1 DVA       0.0420
    109 H39        46.2410   50.2511   83.1170 H           1 DVA       0.0729
    110 H40        43.9150   47.1161   84.3570 H           1 DVA       0.1199
    111 H41        45.1670   48.1176   82.4236 H           1 DVA       0.2361
    112 H42        45.5539   54.7385   84.3414 H           1 DVA       0.1885
    113 H43        48.0481   55.5347   85.6782 H           1 DVA       0.0821
    114 H44        45.8749   57.3045   84.4570 H           1 DVA       0.0453
    115 H45        47.3298   57.8456   85.2858 H           1 DVA       0.0453
    116 H46        47.5279   56.3653   87.7265 H           1 DVA       0.0530
    117 H47        44.0124   57.7766   85.8586 H           1 DVA       0.0530
    118 H48        46.3762   56.3237   89.8377 H           1 DVA       0.0525
    119 H49        42.8878   57.7626   87.9779 H           1 DVA       0.0525
    120 H50        43.5048   57.9165   90.4026 H           1 DVA       0.2458
    121 H51        46.2337   55.9103   82.6448 H           1 DVA       0.1884
    122 H52        48.3222   56.8329   81.1045 H           1 DVA       0.0819
    123 H53        46.0917   57.3480   80.5304 H           1 DVA       0.0478
    124 H54        45.5666   55.6765   80.5672 H           1 DVA       0.0478
    125 H55        46.8393   53.8966   79.9114 H           1 DVA       0.1876
    126 H56        47.4763   52.0033   79.1865 H           1 DVA       0.0749
    127 H57        48.9618   50.5815   80.5279 H           1 DVA       0.0599
    128 H58        47.7672   51.4233   81.5211 H           1 DVA       0.0599
    129 H59        49.9076   51.3481   82.3464 H           1 DVA       0.2096
@<TRIPOS>BOND
     1     1     2   1
     2     2     3   1
     3     2     6   1
     4     3     4   1
     5     3     5   1
     6     6     7   2
     7     6     8  am
     8     8     9   1
     9     8    12   1
    10     9    10   1
    11     9    13   1
    12    10    11   1
    13    11    12   1
    14    13    14   2
    15    13    15  am
    16    15    16   1
    17    16    17   1
    18    17    18   2
    19    17    19  am
    20    19    20   1
    21    20    21   1
    22    20    23   1
    23    21    22   2
    24    21    25  am
    25    23    24   1
    26    25    26   1
    27    26    27   1
    28    26    29   1
    29    27    28   2
    30    27    34  am
    31    29    30   1
    32    30    31   1
    33    31    32   2
    34    31    33  am
    35    34    35   1
    36    35    36   1
    37    35    38   1
    38    36    37   2
    39    36    44  am
    40    38    39   1
    41    39    40   1
    42    39    41   2
    43    40    42   2
    44    41    43   1
    45    42    43   1
    46    44    45   1
    47    45    46   1
    48    45    48   1
    49    46    47   2
    50    46    56  am
    51    48    49   1
    52    49    50  ar
    53    49    51  ar
    54    50    52  ar
    55    51    53  ar
    56    52    54  ar
    57    53    54  ar
    58    54    55   1
    59    56    57   1
    60    57    58   1
    61    57    60   1
    62    58    59   2
    63    58    64  am
    64    60    61   1
    65    61    62  ar
    66    61    63  ar
    67    64    65   1
    68    65    66   1
    69    65    69   1
    70    66    67  ar
    71    66    68  ar
    72    69    70   1
    73     1    71   1
    74     1    72   1
    75     1    73   1
    76     2    74   1
    77     3    75   1
    78     4    76   1
    79     4    77   1
    80     4    78   1
    81     5    79   1
    82     5    80   1
    83     5    81   1
    84     9    82   1
    85    10    83   1
    86    10    84   1
    87    11    85   1
    88    11    86   1
    89    12    87   1
    90    12    88   1
    91    15    89   1
    92    16    90   1
    93    16    91   1
    94    19    92   1
    95    20    93   1
    96    23    94   1
    97    23    95   1
    98    24    96   1
    99    25    97   1
   100    26    98   1
   101    29    99   1
   102    29   100   1
   103    30   101   1
   104    30   102   1
   105    33   103   1
   106    33   104   1
   107    34   105   1
   108    35   106   1
   109    38   107   1
   110    38   108   1
   111    41   109   1
   112    42   110   1
   113    43   111   1
   114    44   112   1
   115    45   113   1
   116    48   114   1
   117    48   115   1
   118    50   116   1
   119    51   117   1
   120    52   118   1
   121    53   119   1
   122    55   120   1
   123    56   121   1
   124    57   122   1
   125    60   123   1
   126    60   124   1
   127    64   125   1
   128    65   126   1
   129    69   127   1
   130    69   128   1
   131    70   129   1
@<TRIPOS>SUBSTRUCTURE
     1  DVA      2

