@<TRIPOS>MOLECULE
1zea_ligand_025
   129   131
SMALL
GAST_HUCK
****
This file was generated by PARSER (from files_GN.cpp)

@<TRIPOS>ATOM
      1 N          51.7348   49.4333   78.2958 N.4         1 DVA       0.2381
      2 CA         51.7458   50.8863   78.0409 C.3         1 DVA       0.0675
      3 CB         52.5984   51.2555   76.7746 C.3         1 DVA       0.0139
      4 CG1        54.0218   50.6202   76.7400 C.3         1 DVA      -0.0553
      5 CG2        51.8480   50.9136   75.4535 C.3         1 DVA      -0.0553
      6 C          52.1552   51.6004   79.2604 C.2         1 DVA       0.2295
      7 O          53.2464   51.2734   79.7209 O.2         1 DVA      -0.3905
      8 N          51.4565   52.5591   79.9012 N.am        1 DVA      -0.2471
      9 CA         50.1454   53.0458   79.5426 C.3         1 DVA       0.1339
     10 CB         50.0461   54.4146   80.2675 C.3         1 DVA      -0.0104
     11 CG         50.9051   54.2265   81.5186 C.3         1 DVA      -0.0281
     12 CD         51.9967   53.2550   81.0447 C.3         1 DVA       0.0371
     13 C          49.0524   52.1397   79.9025 C.2         1 DVA       0.2039
     14 O          49.2803   51.0043   80.3033 O.2         1 DVA      -0.3944
     15 N          47.7984   52.5512   79.7550 N.am        1 DVA      -0.2664
     16 CA         46.6056   51.8133   80.0361 C.3         1 DVA       0.1201
     17 C          46.2881   51.6829   81.4495 C.2         1 DVA       0.2008
     18 O          46.4792   52.6489   82.1760 O.2         1 DVA      -0.3947
     19 N          45.7202   50.5737   81.9195 N.am        1 DVA      -0.2618
     20 CA         45.2972   50.3399   83.2779 C.3         1 DVA       0.1539
     21 C          43.9781   50.9065   83.5586 C.2         1 DVA       0.2062
     22 O          43.0174   50.4992   82.9137 O.2         1 DVA      -0.3943
     23 CB         45.3190   48.8170   83.6045 C.3         1 DVA       0.0843
     24 OG         44.2464   48.0854   83.0099 O.3         1 DVA      -0.3903
     25 N          43.8080   51.7711   84.5520 N.am        1 DVA      -0.2635
     26 CA         42.5628   52.3320   85.0278 C.3         1 DVA       0.1330
     27 C          42.7124   53.0058   86.3174 C.2         1 DVA       0.2041
     28 O          43.8337   53.3017   86.7242 O.2         1 DVA      -0.3944
     29 CB         41.8768   53.2649   83.9705 C.3         1 DVA       0.0045
     30 CG         42.8059   54.2040   83.1462 C.3         1 DVA       0.0412
     31 CD         43.9186   54.7721   83.8845 C.2         1 DVA       0.1737
     32 OE1        45.0693   54.6447   83.4890 O.2         1 DVA      -0.3973
     33 NE2        43.7247   55.4603   84.9856 N.am        1 DVA      -0.3009
     34 N          41.6346   53.2805   87.0496 N.am        1 DVA      -0.2625
     35 CA         41.5822   53.9054   88.3425 C.3         1 DVA       0.1369
     36 C          42.1967   53.0300   89.3434 C.2         1 DVA       0.2055
     37 O          41.4554   52.3194   90.0194 O.2         1 DVA      -0.3942
     38 CB         42.1013   55.3838   88.3478 C.3         1 DVA       0.0145
     39 CG         41.1383   56.3914   87.8442 C.2         1 DVA      -0.0027
     40 ND1        41.2970   57.1492   86.7485 N.2         1 DVA      -0.3252
     41 CD2        39.9720   56.8152   88.4804 C.2         1 DVA       0.0291
     42 CE1        40.2592   58.0026   86.6914 C.2         1 DVA       0.0907
     43 NE2        39.4597   57.8073   87.7484 N.pl3       1 DVA      -0.2752
     44 N          43.5193   52.9919   89.5211 N.am        1 DVA      -0.2620
     45 CA         44.2373   52.2938   90.5560 C.3         1 DVA       0.1390
     46 C          45.5967   52.0122   90.1138 C.2         1 DVA       0.2058
     47 O          45.9770   50.8468   90.0541 O.2         1 DVA      -0.3942
     48 CB         44.2216   53.1357   91.8711 C.3         1 DVA       0.0163
     49 CG         42.8315   53.4118   92.3429 C.ar        1 DVA      -0.0493
     50 CD1        42.0872   52.4056   92.9989 C.ar        1 DVA      -0.0685
     51 CD2        42.2031   54.6433   92.0572 C.ar        1 DVA      -0.0685
     52 CE1        40.7325   52.6143   93.3268 C.ar        1 DVA      -0.0398
     53 CE2        40.8502   54.8517   92.3809 C.ar        1 DVA      -0.0398
     54 CZ         40.1097   53.8354   93.0129 C.ar        1 DVA       0.0805
     55 OH         38.7994   54.0150   93.3136 O.3         1 DVA      -0.3376
     56 N          46.4362   53.0136   89.8599 N.am        1 DVA      -0.2620
     57 CA         47.8442   52.8992   89.6062 C.3         1 DVA       0.1423
     58 C          48.1055   52.0377   88.4522 C.2         1 DVA       0.2051
     59 O          48.0304   52.5005   87.3207 O.2         1 DVA      -0.3943
     60 CB         48.4521   54.3289   89.4563 C.3         1 DVA       0.0406
     61 CG         49.9285   54.3440   89.3993 C.2         1 DVA       0.0393
     62 OD1        50.5729   54.8341   88.3150 O.co2       1 DVA      -0.5688
     63 OD2        50.6602   53.8680   90.4322 O.co2       1 DVA      -0.5688
     64 N          48.3803   50.7493   88.6545 N.am        1 DVA      -0.2671
     65 CA         48.6768   49.7527   87.6613 C.3         1 DVA       0.1173
     66 C          49.0623   48.4726   88.3017 C.2         1 DVA       0.0623
     67 O          49.6341   47.4838   87.5785 O.co2       1 DVA      -0.5665
     68 OXT        48.8561   48.2266   89.6163 O.co2       1 DVA      -0.5665
     69 CB         47.4790   49.5250   86.6899 C.3         1 DVA       0.0789
     70 OG         47.9342   49.1937   85.3782 O.3         1 DVA      -0.3910
     71 H1         51.5875   48.9272   77.4210 H           1 DVA       0.2015
     72 H2         50.9719   49.1922   78.9307 H           1 DVA       0.2015
     73 H3         52.6274   49.1392   78.6985 H           1 DVA       0.2015
     74 H4         50.7077   51.1269   77.8132 H           1 DVA       0.1101
     75 H5         52.7349   52.3423   76.7734 H           1 DVA       0.0376
     76 H6         54.5580   50.9387   75.8451 H           1 DVA       0.0236
     77 H7         53.9597   49.5312   76.7335 H           1 DVA       0.0236
     78 H8         54.6119   50.9319   77.5999 H           1 DVA       0.0236
     79 H9         50.8888   51.4324   75.4150 H           1 DVA       0.0236
     80 H10        51.6665   49.8402   75.3735 H           1 DVA       0.0236
     81 H11        52.4321   51.2308   74.5879 H           1 DVA       0.0236
     82 H12        50.0952   53.2459   78.4682 H           1 DVA       0.0802
     83 H13        49.0265   54.7118   80.5232 H           1 DVA       0.0313
     84 H14        50.4856   55.1973   79.6411 H           1 DVA       0.0313
     85 H15        50.3107   53.7740   82.3180 H           1 DVA       0.0287
     86 H16        51.3223   55.1743   81.8732 H           1 DVA       0.0287
     87 H17        52.8925   53.8122   80.7534 H           1 DVA       0.0524
     88 H18        52.2522   52.5600   81.8500 H           1 DVA       0.0524
     89 H19        47.6741   53.4443   79.3926 H           1 DVA       0.1881
     90 H20        46.6687   50.8337   79.5497 H           1 DVA       0.0763
     91 H21        45.7789   52.3574   79.5745 H           1 DVA       0.0763
     92 H22        45.5938   49.8417   81.2943 H           1 DVA       0.1884
     93 H23        46.0436   50.8006   83.9354 H           1 DVA       0.0823
     94 H24        45.2525   48.6750   84.6868 H           1 DVA       0.0606
     95 H25        46.2639   48.3908   83.2640 H           1 DVA       0.0606
     96 H26        44.4542   48.0545   82.0563 H           1 DVA       0.2097
     97 H27        44.6095   52.0181   85.0435 H           1 DVA       0.1883
     98 H28        41.8952   51.4860   85.2067 H           1 DVA       0.0801
     99 H29        41.1058   53.8764   84.4523 H           1 DVA       0.0337
    100 H30        41.3439   52.6328   83.2525 H           1 DVA       0.0337
    101 H31        42.2022   55.0273   82.7508 H           1 DVA       0.0504
    102 H32        43.1799   53.6486   82.2824 H           1 DVA       0.0504
    103 H33        44.4741   55.8656   85.4469 H           1 DVA       0.1814
    104 H34        42.8236   55.5830   85.3271 H           1 DVA       0.1814
    105 H35        40.7832   52.9901   86.6854 H           1 DVA       0.1885
    106 H36        40.5180   53.9597   88.6030 H           1 DVA       0.0817
    107 H37        43.0210   55.4538   87.7607 H           1 DVA       0.0420
    108 H38        42.3521   55.6837   89.3667 H           1 DVA       0.0420
    109 H39        39.5938   56.4566   89.3585 H           1 DVA       0.0729
    110 H40        40.1147   58.7071   85.9662 H           1 DVA       0.1199
    111 H41        38.6522   58.3098   87.9546 H           1 DVA       0.2361
    112 H42        44.0443   53.5930   88.9674 H           1 DVA       0.1885
    113 H43        43.7473   51.3385   90.7737 H           1 DVA       0.0821
    114 H44        44.7572   54.0740   91.7012 H           1 DVA       0.0453
    115 H45        44.7638   52.6013   92.6561 H           1 DVA       0.0453
    116 H46        42.5163   51.5073   93.2193 H           1 DVA       0.0530
    117 H47        42.7127   55.3865   91.5709 H           1 DVA       0.0530
    118 H48        40.2021   51.8675   93.7781 H           1 DVA       0.0525
    119 H49        40.4044   55.7419   92.1444 H           1 DVA       0.0525
    120 H50        38.4402   54.6166   92.6254 H           1 DVA       0.2458
    121 H51        46.0795   53.9125   89.9281 H           1 DVA       0.1884
    122 H52        48.3018   52.4632   90.5023 H           1 DVA       0.0819
    123 H53        48.1504   54.9364   90.3132 H           1 DVA       0.0478
    124 H54        48.0491   54.8072   88.5577 H           1 DVA       0.0478
    125 H55        48.4149   50.4568   89.5788 H           1 DVA       0.1876
    126 H56        49.5365   50.1042   87.0845 H           1 DVA       0.0749
    127 H57        46.8656   50.4254   86.5973 H           1 DVA       0.0599
    128 H58        46.8352   48.7170   87.0541 H           1 DVA       0.0599
    129 H59        48.3056   50.0281   85.0209 H           1 DVA       0.2096
@<TRIPOS>BOND
     1     1     2   1
     2     2     3   1
     3     2     6   1
     4     3     4   1
     5     3     5   1
     6     6     7   2
     7     6     8  am
     8     8     9   1
     9     8    12   1
    10     9    10   1
    11     9    13   1
    12    10    11   1
    13    11    12   1
    14    13    14   2
    15    13    15  am
    16    15    16   1
    17    16    17   1
    18    17    18   2
    19    17    19  am
    20    19    20   1
    21    20    21   1
    22    20    23   1
    23    21    22   2
    24    21    25  am
    25    23    24   1
    26    25    26   1
    27    26    27   1
    28    26    29   1
    29    27    28   2
    30    27    34  am
    31    29    30   1
    32    30    31   1
    33    31    32   2
    34    31    33  am
    35    34    35   1
    36    35    36   1
    37    35    38   1
    38    36    37   2
    39    36    44  am
    40    38    39   1
    41    39    40   1
    42    39    41   2
    43    40    42   2
    44    41    43   1
    45    42    43   1
    46    44    45   1
    47    45    46   1
    48    45    48   1
    49    46    47   2
    50    46    56  am
    51    48    49   1
    52    49    50  ar
    53    49    51  ar
    54    50    52  ar
    55    51    53  ar
    56    52    54  ar
    57    53    54  ar
    58    54    55   1
    59    56    57   1
    60    57    58   1
    61    57    60   1
    62    58    59   2
    63    58    64  am
    64    60    61   1
    65    61    62  ar
    66    61    63  ar
    67    64    65   1
    68    65    66   1
    69    65    69   1
    70    66    67  ar
    71    66    68  ar
    72    69    70   1
    73     1    71   1
    74     1    72   1
    75     1    73   1
    76     2    74   1
    77     3    75   1
    78     4    76   1
    79     4    77   1
    80     4    78   1
    81     5    79   1
    82     5    80   1
    83     5    81   1
    84     9    82   1
    85    10    83   1
    86    10    84   1
    87    11    85   1
    88    11    86   1
    89    12    87   1
    90    12    88   1
    91    15    89   1
    92    16    90   1
    93    16    91   1
    94    19    92   1
    95    20    93   1
    96    23    94   1
    97    23    95   1
    98    24    96   1
    99    25    97   1
   100    26    98   1
   101    29    99   1
   102    29   100   1
   103    30   101   1
   104    30   102   1
   105    33   103   1
   106    33   104   1
   107    34   105   1
   108    35   106   1
   109    38   107   1
   110    38   108   1
   111    41   109   1
   112    42   110   1
   113    43   111   1
   114    44   112   1
   115    45   113   1
   116    48   114   1
   117    48   115   1
   118    50   116   1
   119    51   117   1
   120    52   118   1
   121    53   119   1
   122    55   120   1
   123    56   121   1
   124    57   122   1
   125    60   123   1
   126    60   124   1
   127    64   125   1
   128    65   126   1
   129    69   127   1
   130    69   128   1
   131    70   129   1
@<TRIPOS>SUBSTRUCTURE
     1  DVA      2

