@<TRIPOS>MOLECULE
1zea_ligand_001
   129   131
SMALL
GAST_HUCK
****
This file was generated by PARSER (from files_GN.cpp)

@<TRIPOS>ATOM
      1 N          50.9507   49.9358   77.1601 N.4         1 DVA       0.2381
      2 CA         51.8111   51.0322   77.6451 C.3         1 DVA       0.0675
      3 CB         53.0129   51.3305   76.6739 C.3         1 DVA       0.0139
      4 CG1        53.8630   50.0853   76.2864 C.3         1 DVA      -0.0553
      5 CG2        52.5393   52.0569   75.3830 C.3         1 DVA      -0.0553
      6 C          52.2295   50.7752   79.0308 C.2         1 DVA       0.2295
      7 O          52.8864   49.7541   79.2053 O.2         1 DVA      -0.3905
      8 N          51.9484   51.5427   80.1017 N.am        1 DVA      -0.2471
      9 CA         51.0894   52.7024   80.1186 C.3         1 DVA       0.1339
     10 CB         51.3754   53.3923   81.4751 C.3         1 DVA      -0.0104
     11 CG         51.8614   52.2616   82.3885 C.3         1 DVA      -0.0281
     12 CD         52.4802   51.2506   81.4088 C.3         1 DVA       0.0371
     13 C          49.6816   52.3315   79.9696 C.2         1 DVA       0.2039
     14 O          48.9913   52.9173   79.1422 O.2         1 DVA      -0.3944
     15 N          49.1829   51.3475   80.7085 N.am        1 DVA      -0.2664
     16 CA         47.8445   50.8452   80.7383 C.3         1 DVA       0.1201
     17 C          47.3149   50.7937   82.0899 C.2         1 DVA       0.2008
     18 O          47.7770   51.5002   82.9848 O.2         1 DVA      -0.3947
     19 N          46.3271   49.9469   82.3500 N.am        1 DVA      -0.2618
     20 CA         45.7499   49.6629   83.6422 C.3         1 DVA       0.1539
     21 C          45.4194   50.8332   84.4629 C.2         1 DVA       0.2062
     22 O          45.4743   51.9630   83.9960 O.2         1 DVA      -0.3943
     23 CB         44.5256   48.7254   83.4363 C.3         1 DVA       0.0843
     24 OG         43.6809   49.1758   82.3820 O.3         1 DVA      -0.3903
     25 N          45.1695   50.6413   85.7568 N.am        1 DVA      -0.2635
     26 CA         45.0870   51.6287   86.8002 C.3         1 DVA       0.1330
     27 C          44.1267   52.6891   86.4962 C.2         1 DVA       0.2041
     28 O          44.5249   53.8424   86.3684 O.2         1 DVA      -0.3944
     29 CB         44.7395   50.8971   88.1359 C.3         1 DVA       0.0045
     30 CG         44.8579   51.7635   89.4243 C.3         1 DVA       0.0412
     31 CD         46.1320   51.6063   90.1019 C.2         1 DVA       0.1737
     32 OE1        46.4989   50.4928   90.4552 O.2         1 DVA      -0.3973
     33 NE2        46.9098   52.6294   90.3745 N.am        1 DVA      -0.3009
     34 N          42.8512   52.3749   86.3075 N.am        1 DVA      -0.2625
     35 CA         41.7815   53.2302   85.8767 C.3         1 DVA       0.1369
     36 C          41.3436   54.1171   86.9550 C.2         1 DVA       0.2055
     37 O          41.5267   55.3280   86.8789 O.2         1 DVA      -0.3942
     38 CB         42.1516   53.9028   84.5072 C.3         1 DVA       0.0145
     39 CG         41.0404   54.0774   83.5443 C.2         1 DVA      -0.0027
     40 ND1        41.2011   54.0454   82.2103 N.2         1 DVA      -0.3252
     41 CD2        39.6839   54.2859   83.7866 C.2         1 DVA       0.0291
     42 CE1        39.9952   54.2234   81.6461 C.2         1 DVA       0.0907
     43 NE2        39.0703   54.3727   82.6016 N.pl3       1 DVA      -0.2752
     44 N          40.7590   53.6051   88.0376 N.am        1 DVA      -0.2620
     45 CA         40.1672   54.3541   89.1275 C.3         1 DVA       0.1390
     46 C          39.2747   53.4773   89.8938 C.2         1 DVA       0.2058
     47 O          38.3375   52.9540   89.2995 O.2         1 DVA      -0.3942
     48 CB         41.3045   55.0695   89.9442 C.3         1 DVA       0.0163
     49 CG         40.9094   56.3825   90.5382 C.ar        1 DVA      -0.0493
     50 CD1        41.1619   56.6899   91.9004 C.ar        1 DVA      -0.0685
     51 CD2        40.3553   57.3880   89.7119 C.ar        1 DVA      -0.0685
     52 CE1        40.8785   57.9705   92.4145 C.ar        1 DVA      -0.0398
     53 CE2        40.0710   58.6681   90.2237 C.ar        1 DVA      -0.0398
     54 CZ         40.3404   58.9646   91.5780 C.ar        1 DVA       0.0805
     55 OH         40.1010   60.2075   92.0713 O.3         1 DVA      -0.3376
     56 N          39.3540   53.3391   91.2173 N.am        1 DVA      -0.2620
     57 CA         38.4416   52.5909   92.0477 C.3         1 DVA       0.1423
     58 C          38.7785   51.1713   92.1834 C.2         1 DVA       0.2051
     59 O          39.8829   50.7657   91.8425 O.2         1 DVA      -0.3943
     60 CB         38.2938   53.3078   93.4261 C.3         1 DVA       0.0406
     61 CG         39.4963   53.3790   94.2835 C.2         1 DVA       0.0393
     62 OD1        39.4141   53.9895   95.4836 O.co2       1 DVA      -0.5688
     63 OD2        40.6880   52.8501   93.9152 O.co2       1 DVA      -0.5688
     64 N          37.8803   50.3463   92.7180 N.am        1 DVA      -0.2671
     65 CA         38.0430   48.9550   93.0251 C.3         1 DVA       0.1173
     66 C          38.4904   48.8393   94.4244 C.2         1 DVA       0.0623
     67 O          37.7081   49.2626   95.4436 O.co2       1 DVA      -0.5665
     68 OXT        39.6870   48.2799   94.7241 O.co2       1 DVA      -0.5665
     69 CB         36.7171   48.1817   92.8091 C.3         1 DVA       0.0789
     70 OG         36.3999   48.1187   91.4229 O.3         1 DVA      -0.3910
     71 H1         50.6143   50.1555   76.2212 H           1 DVA       0.2015
     72 H2         50.1540   49.8101   77.7901 H           1 DVA       0.2015
     73 H3         51.4718   49.0623   77.1212 H           1 DVA       0.2015
     74 H4         51.1664   51.9099   77.6194 H           1 DVA       0.1101
     75 H5         53.6835   52.0278   77.1858 H           1 DVA       0.0376
     76 H6         54.6830   50.3764   75.6256 H           1 DVA       0.0236
     77 H7         53.2523   49.3417   75.7681 H           1 DVA       0.0236
     78 H8         54.3074   49.6209   77.1661 H           1 DVA       0.0236
     79 H9         52.0171   52.9831   75.6328 H           1 DVA       0.0236
     80 H10        51.8645   51.4227   74.8028 H           1 DVA       0.0236
     81 H11        53.3940   52.3175   74.7539 H           1 DVA       0.0236
     82 H12        51.3862   53.4069   79.3342 H           1 DVA       0.0802
     83 H13        50.5034   53.9053   81.8972 H           1 DVA       0.0313
     84 H14        52.1795   54.1262   81.3550 H           1 DVA       0.0313
     85 H15        51.0120   51.8159   82.9133 H           1 DVA       0.0287
     86 H16        52.5873   52.6165   83.1244 H           1 DVA       0.0287
     87 H17        53.5699   51.3554   81.3964 H           1 DVA       0.0524
     88 H18        52.2203   50.2334   81.7208 H           1 DVA       0.0524
     89 H19        49.7942   50.9144   81.3258 H           1 DVA       0.1881
     90 H20        47.8820   49.8251   80.3401 H           1 DVA       0.0763
     91 H21        47.1656   51.4341   80.1110 H           1 DVA       0.0763
     92 H22        46.0232   49.3915   81.6080 H           1 DVA       0.1884
     93 H23        46.4975   49.0794   84.1972 H           1 DVA       0.0823
     94 H24        43.9307   48.6530   84.3500 H           1 DVA       0.0606
     95 H25        44.8698   47.7176   83.1904 H           1 DVA       0.0606
     96 H26        44.1054   48.8489   81.5606 H           1 DVA       0.2097
     97 H27        45.1131   49.7177   86.0469 H           1 DVA       0.1883
     98 H28        46.0904   52.0571   86.9109 H           1 DVA       0.0801
     99 H29        45.3969   50.0283   88.2355 H           1 DVA       0.0337
    100 H30        43.7190   50.5062   88.0802 H           1 DVA       0.0337
    101 H31        44.0728   51.4638   90.1223 H           1 DVA       0.0504
    102 H32        44.6760   52.8125   89.1751 H           1 DVA       0.0504
    103 H33        47.7531   52.4872   90.8342 H           1 DVA       0.1814
    104 H34        46.6437   53.5282   90.1177 H           1 DVA       0.1814
    105 H35        42.6159   51.4417   86.4356 H           1 DVA       0.1885
    106 H36        40.9519   52.5505   85.6797 H           1 DVA       0.0817
    107 H37        42.8977   53.2813   84.0004 H           1 DVA       0.0420
    108 H38        42.6128   54.8811   84.6698 H           1 DVA       0.0420
    109 H39        39.2293   54.3460   84.6963 H           1 DVA       0.0729
    110 H40        39.8170   54.2388   80.6402 H           1 DVA       0.1199
    111 H41        38.1215   54.5058   82.4555 H           1 DVA       0.2361
    112 H42        40.6347   52.6370   88.0520 H           1 DVA       0.1885
    113 H43        39.5123   55.1147   88.6837 H           1 DVA       0.0821
    114 H44        42.1679   55.2691   89.2848 H           1 DVA       0.0453
    115 H45        41.6585   54.3839   90.7291 H           1 DVA       0.0453
    116 H46        41.5581   55.9857   92.5257 H           1 DVA       0.0530
    117 H47        40.1729   57.1979   88.7192 H           1 DVA       0.0530
    118 H48        41.0780   58.1793   93.3951 H           1 DVA       0.0525
    119 H49        39.6785   59.3869   89.6095 H           1 DVA       0.0525
    120 H50        39.2105   60.4428   91.7374 H           1 DVA       0.2458
    121 H51        40.0546   53.8289   91.6777 H           1 DVA       0.1884
    122 H52        37.4585   52.6464   91.5736 H           1 DVA       0.0819
    123 H53        37.5087   52.8119   94.0030 H           1 DVA       0.0478
    124 H54        37.9550   54.3320   93.2528 H           1 DVA       0.0478
    125 H55        37.0499   50.7505   93.0089 H           1 DVA       0.1876
    126 H56        38.7907   48.4927   92.3743 H           1 DVA       0.0749
    127 H57        35.8969   48.6627   93.3488 H           1 DVA       0.0599
    128 H58        36.8227   47.1568   93.1767 H           1 DVA       0.0599
    129 H59        35.4348   47.9393   91.3908 H           1 DVA       0.2096
@<TRIPOS>BOND
     1     1     2   1
     2     2     3   1
     3     2     6   1
     4     3     4   1
     5     3     5   1
     6     6     7   2
     7     6     8  am
     8     8     9   1
     9     8    12   1
    10     9    10   1
    11     9    13   1
    12    10    11   1
    13    11    12   1
    14    13    14   2
    15    13    15  am
    16    15    16   1
    17    16    17   1
    18    17    18   2
    19    17    19  am
    20    19    20   1
    21    20    21   1
    22    20    23   1
    23    21    22   2
    24    21    25  am
    25    23    24   1
    26    25    26   1
    27    26    27   1
    28    26    29   1
    29    27    28   2
    30    27    34  am
    31    29    30   1
    32    30    31   1
    33    31    32   2
    34    31    33  am
    35    34    35   1
    36    35    36   1
    37    35    38   1
    38    36    37   2
    39    36    44  am
    40    38    39   1
    41    39    40   1
    42    39    41   2
    43    40    42   2
    44    41    43   1
    45    42    43   1
    46    44    45   1
    47    45    46   1
    48    45    48   1
    49    46    47   2
    50    46    56  am
    51    48    49   1
    52    49    50  ar
    53    49    51  ar
    54    50    52  ar
    55    51    53  ar
    56    52    54  ar
    57    53    54  ar
    58    54    55   1
    59    56    57   1
    60    57    58   1
    61    57    60   1
    62    58    59   2
    63    58    64  am
    64    60    61   1
    65    61    62  ar
    66    61    63  ar
    67    64    65   1
    68    65    66   1
    69    65    69   1
    70    66    67  ar
    71    66    68  ar
    72    69    70   1
    73     1    71   1
    74     1    72   1
    75     1    73   1
    76     2    74   1
    77     3    75   1
    78     4    76   1
    79     4    77   1
    80     4    78   1
    81     5    79   1
    82     5    80   1
    83     5    81   1
    84     9    82   1
    85    10    83   1
    86    10    84   1
    87    11    85   1
    88    11    86   1
    89    12    87   1
    90    12    88   1
    91    15    89   1
    92    16    90   1
    93    16    91   1
    94    19    92   1
    95    20    93   1
    96    23    94   1
    97    23    95   1
    98    24    96   1
    99    25    97   1
   100    26    98   1
   101    29    99   1
   102    29   100   1
   103    30   101   1
   104    30   102   1
   105    33   103   1
   106    33   104   1
   107    34   105   1
   108    35   106   1
   109    38   107   1
   110    38   108   1
   111    41   109   1
   112    42   110   1
   113    43   111   1
   114    44   112   1
   115    45   113   1
   116    48   114   1
   117    48   115   1
   118    50   116   1
   119    51   117   1
   120    52   118   1
   121    53   119   1
   122    55   120   1
   123    56   121   1
   124    57   122   1
   125    60   123   1
   126    60   124   1
   127    64   125   1
   128    65   126   1
   129    69   127   1
   130    69   128   1
   131    70   129   1
@<TRIPOS>SUBSTRUCTURE
     1  DVA      2

