@<TRIPOS>MOLECULE
1zea_ligand_038
   129   131
SMALL
GAST_HUCK
****
This file was generated by PARSER (from files_GN.cpp)

@<TRIPOS>ATOM
      1 N          50.3727   54.4263   80.4605 N.4         1 DVA       0.2381
      2 CA         51.2563   53.3172   80.8662 C.3         1 DVA       0.0675
      3 CB         52.0891   53.6687   82.1499 C.3         1 DVA       0.0139
      4 CG1        51.1888   54.0477   83.3616 C.3         1 DVA      -0.0553
      5 CG2        53.0430   52.5091   82.5605 C.3         1 DVA      -0.0553
      6 C          52.0899   52.9644   79.7094 C.2         1 DVA       0.2295
      7 O          52.8650   53.8427   79.3380 O.2         1 DVA      -0.3905
      8 N          52.1017   51.7773   79.0716 N.am        1 DVA      -0.2471
      9 CA         51.1851   50.6817   79.2889 C.3         1 DVA       0.1339
     10 CB         51.6638   49.5445   78.3466 C.3         1 DVA      -0.0104
     11 CG         53.1202   49.9053   78.0426 C.3         1 DVA      -0.0281
     12 CD         53.1271   51.4373   78.1219 C.3         1 DVA       0.0371
     13 C          49.7797   51.0082   79.0316 C.2         1 DVA       0.2039
     14 O          49.4616   51.3954   77.9124 O.2         1 DVA      -0.3944
     15 N          48.8707   50.8788   79.9909 N.am        1 DVA      -0.2664
     16 CA         47.4621   51.1035   79.8373 C.3         1 DVA       0.1201
     17 C          46.8324   51.2933   81.1315 C.2         1 DVA       0.2008
     18 O          47.0626   52.3397   81.7302 O.2         1 DVA      -0.3947
     19 N          46.0499   50.3525   81.6575 N.am        1 DVA      -0.2618
     20 CA         45.3766   50.4236   82.9302 C.3         1 DVA       0.1539
     21 C          44.0435   50.9915   82.7549 C.2         1 DVA       0.2062
     22 O          43.1817   50.3164   82.2035 O.2         1 DVA      -0.3943
     23 CB         45.3139   49.0264   83.6214 C.3         1 DVA       0.0843
     24 OG         44.3007   48.1579   83.1080 O.3         1 DVA      -0.3903
     25 N          43.7424   52.1898   83.2424 N.am        1 DVA      -0.2635
     26 CA         42.4483   52.8333   83.1865 C.3         1 DVA       0.1330
     27 C          42.3859   53.7673   84.2995 C.2         1 DVA       0.2041
     28 O          43.2394   54.6448   84.3801 O.2         1 DVA      -0.3944
     29 CB         42.1691   53.5062   81.7930 C.3         1 DVA       0.0045
     30 CG         40.6846   53.4160   81.3151 C.3         1 DVA       0.0412
     31 CD         39.6427   53.7836   82.2541 C.2         1 DVA       0.1737
     32 OE1        38.4984   53.3841   82.0825 O.2         1 DVA      -0.3973
     33 NE2        39.8394   54.5537   83.3022 N.am        1 DVA      -0.3009
     34 N          41.4618   53.6309   85.2478 N.am        1 DVA      -0.2625
     35 CA         41.3546   54.3572   86.4825 C.3         1 DVA       0.1369
     36 C          42.4327   53.9465   87.3854 C.2         1 DVA       0.2055
     37 O          43.1410   54.7907   87.9228 O.2         1 DVA      -0.3942
     38 CB         41.1971   55.8955   86.2284 C.3         1 DVA       0.0145
     39 CG         40.5447   56.7096   87.2811 C.2         1 DVA      -0.0027
     40 ND1        40.1142   57.9701   87.0683 N.2         1 DVA      -0.3252
     41 CD2        40.2276   56.3837   88.5978 C.2         1 DVA       0.0291
     42 CE1        39.5565   58.4063   88.2107 C.2         1 DVA       0.0907
     43 NE2        39.6234   57.4445   89.1453 N.pl3       1 DVA      -0.2752
     44 N          42.6209   52.6391   87.5758 N.am        1 DVA      -0.2620
     45 CA         43.6178   51.8892   88.2976 C.3         1 DVA       0.1390
     46 C          44.9531   52.4762   88.4501 C.2         1 DVA       0.2058
     47 O          45.8855   51.9796   87.8243 O.2         1 DVA      -0.3942
     48 CB         43.0383   51.2833   89.6172 C.3         1 DVA       0.0163
     49 CG         42.2336   52.1906   90.4634 C.ar        1 DVA      -0.0493
     50 CD1        42.6353   52.5019   91.7868 C.ar        1 DVA      -0.0685
     51 CD2        40.9905   52.6995   90.0116 C.ar        1 DVA      -0.0685
     52 CE1        41.8529   53.3373   92.6076 C.ar        1 DVA      -0.0398
     53 CE2        40.2005   53.5292   90.8311 C.ar        1 DVA      -0.0398
     54 CZ         40.6360   53.8621   92.1277 C.ar        1 DVA       0.0805
     55 OH         39.8877   54.6711   92.9277 O.3         1 DVA      -0.3376
     56 N          45.1913   53.5363   89.2210 N.am        1 DVA      -0.2620
     57 CA         46.4351   54.2635   89.3070 C.3         1 DVA       0.1423
     58 C          46.7210   54.9305   88.0310 C.2         1 DVA       0.2051
     59 O          47.5883   54.4570   87.3023 O.2         1 DVA      -0.3943
     60 CB         46.4363   55.2929   90.4861 C.3         1 DVA       0.0406
     61 CG         46.6370   54.6965   91.8193 C.2         1 DVA       0.0393
     62 OD1        47.6166   55.1482   92.6399 O.co2       1 DVA      -0.5688
     63 OD2        45.7015   53.8815   92.3547 O.co2       1 DVA      -0.5688
     64 N          46.0145   55.9891   87.6502 N.am        1 DVA      -0.2671
     65 CA         46.0857   56.7230   86.4098 C.3         1 DVA       0.1173
     66 C          45.0682   57.8045   86.4162 C.2         1 DVA       0.0623
     67 O          44.2564   58.0463   87.4767 O.co2       1 DVA      -0.5665
     68 OXT        44.8657   58.5581   85.3058 O.co2       1 DVA      -0.5665
     69 CB         47.5006   57.3357   86.1362 C.3         1 DVA       0.0789
     70 OG         48.4397   56.3685   85.6564 O.3         1 DVA      -0.3910
     71 H1         49.6959   54.6180   81.2009 H           1 DVA       0.2015
     72 H2         49.8663   54.1707   79.6092 H           1 DVA       0.2015
     73 H3         50.9293   55.2657   80.2837 H           1 DVA       0.2015
     74 H4         50.5973   52.4958   81.1393 H           1 DVA       0.1101
     75 H5         52.7110   54.5433   81.9318 H           1 DVA       0.0376
     76 H6         51.8024   54.2633   84.2412 H           1 DVA       0.0236
     77 H7         50.5080   53.2304   83.6068 H           1 DVA       0.0236
     78 H8         50.6036   54.9399   83.1453 H           1 DVA       0.0236
     79 H9         53.7543   52.2900   81.7610 H           1 DVA       0.0236
     80 H10        52.4741   51.6024   82.7752 H           1 DVA       0.0236
     81 H11        53.6183   52.7785   83.4472 H           1 DVA       0.0236
     82 H12        51.3161   50.3321   80.3201 H           1 DVA       0.0802
     83 H13        51.1081   49.5205   77.4035 H           1 DVA       0.0313
     84 H14        51.5872   48.5633   78.8224 H           1 DVA       0.0313
     85 H15        53.4394   49.5444   77.0627 H           1 DVA       0.0287
     86 H16        53.7736   49.4854   78.8134 H           1 DVA       0.0287
     87 H17        54.1185   51.7719   78.4389 H           1 DVA       0.0524
     88 H18        52.8917   51.8816   77.1503 H           1 DVA       0.0524
     89 H19        49.1795   50.5849   80.8656 H           1 DVA       0.1881
     90 H20        47.0250   50.2450   79.3096 H           1 DVA       0.0763
     91 H21        47.2877   51.9960   79.2295 H           1 DVA       0.0763
     92 H22        45.9260   49.5437   81.1412 H           1 DVA       0.1884
     93 H23        45.9668   51.0610   83.6006 H           1 DVA       0.0823
     94 H24        45.1123   49.1622   84.6848 H           1 DVA       0.0606
     95 H25        46.2813   48.5345   83.5237 H           1 DVA       0.0606
     96 H26        44.5050   48.0429   82.1595 H           1 DVA       0.2097
     97 H27        44.4480   52.6511   83.7235 H           1 DVA       0.1883
     98 H28        41.7030   52.0447   83.3552 H           1 DVA       0.0801
     99 H29        42.7710   53.0074   81.0282 H           1 DVA       0.0337
    100 H30        42.4900   54.5503   81.7934 H           1 DVA       0.0337
    101 H31        40.5087   52.3827   80.9967 H           1 DVA       0.0504
    102 H32        40.5690   54.0440   80.4286 H           1 DVA       0.0504
    103 H33        39.0881   54.7542   83.8903 H           1 DVA       0.1814
    104 H34        40.7200   54.9088   83.4884 H           1 DVA       0.1814
    105 H35        40.8085   52.9268   85.1230 H           1 DVA       0.1885
    106 H36        40.4180   54.0266   86.9514 H           1 DVA       0.0817
    107 H37        40.5981   56.0214   85.3228 H           1 DVA       0.0420
    108 H38        42.1682   56.3421   86.0249 H           1 DVA       0.0420
    109 H39        40.4131   55.5017   89.0804 H           1 DVA       0.0729
    110 H40        39.1383   59.3325   88.3505 H           1 DVA       0.1199
    111 H41        39.2971   57.5117   90.0599 H           1 DVA       0.2361
    112 H42        41.9820   52.0651   87.1157 H           1 DVA       0.1885
    113 H43        43.7575   51.0136   87.6545 H           1 DVA       0.0821
    114 H44        43.8671   50.8602   90.1941 H           1 DVA       0.0453
    115 H45        42.3966   50.4368   89.3603 H           1 DVA       0.0453
    116 H46        43.5012   52.1237   92.1668 H           1 DVA       0.0530
    117 H47        40.6451   52.4540   89.0854 H           1 DVA       0.0530
    118 H48        42.1612   53.5618   93.5594 H           1 DVA       0.0525
    119 H49        39.3039   53.8835   90.4783 H           1 DVA       0.0525
    120 H50        39.2818   55.1635   92.3279 H           1 DVA       0.2458
    121 H51        44.4458   53.8910   89.7383 H           1 DVA       0.1884
    122 H52        47.2342   53.5362   89.5065 H           1 DVA       0.0819
    123 H53        45.4923   55.8393   90.4955 H           1 DVA       0.0478
    124 H54        47.2417   56.0309   90.3337 H           1 DVA       0.0478
    125 H55        45.3366   56.2790   88.2721 H           1 DVA       0.1876
    126 H56        45.8351   56.0461   85.5866 H           1 DVA       0.0749
    127 H57        47.9102   57.7740   87.0573 H           1 DVA       0.0599
    128 H58        47.4545   58.1255   85.3831 H           1 DVA       0.0599
    129 H59        48.0646   56.0462   84.8065 H           1 DVA       0.2096
@<TRIPOS>BOND
     1     1     2   1
     2     2     3   1
     3     2     6   1
     4     3     4   1
     5     3     5   1
     6     6     7   2
     7     6     8  am
     8     8     9   1
     9     8    12   1
    10     9    10   1
    11     9    13   1
    12    10    11   1
    13    11    12   1
    14    13    14   2
    15    13    15  am
    16    15    16   1
    17    16    17   1
    18    17    18   2
    19    17    19  am
    20    19    20   1
    21    20    21   1
    22    20    23   1
    23    21    22   2
    24    21    25  am
    25    23    24   1
    26    25    26   1
    27    26    27   1
    28    26    29   1
    29    27    28   2
    30    27    34  am
    31    29    30   1
    32    30    31   1
    33    31    32   2
    34    31    33  am
    35    34    35   1
    36    35    36   1
    37    35    38   1
    38    36    37   2
    39    36    44  am
    40    38    39   1
    41    39    40   1
    42    39    41   2
    43    40    42   2
    44    41    43   1
    45    42    43   1
    46    44    45   1
    47    45    46   1
    48    45    48   1
    49    46    47   2
    50    46    56  am
    51    48    49   1
    52    49    50  ar
    53    49    51  ar
    54    50    52  ar
    55    51    53  ar
    56    52    54  ar
    57    53    54  ar
    58    54    55   1
    59    56    57   1
    60    57    58   1
    61    57    60   1
    62    58    59   2
    63    58    64  am
    64    60    61   1
    65    61    62  ar
    66    61    63  ar
    67    64    65   1
    68    65    66   1
    69    65    69   1
    70    66    67  ar
    71    66    68  ar
    72    69    70   1
    73     1    71   1
    74     1    72   1
    75     1    73   1
    76     2    74   1
    77     3    75   1
    78     4    76   1
    79     4    77   1
    80     4    78   1
    81     5    79   1
    82     5    80   1
    83     5    81   1
    84     9    82   1
    85    10    83   1
    86    10    84   1
    87    11    85   1
    88    11    86   1
    89    12    87   1
    90    12    88   1
    91    15    89   1
    92    16    90   1
    93    16    91   1
    94    19    92   1
    95    20    93   1
    96    23    94   1
    97    23    95   1
    98    24    96   1
    99    25    97   1
   100    26    98   1
   101    29    99   1
   102    29   100   1
   103    30   101   1
   104    30   102   1
   105    33   103   1
   106    33   104   1
   107    34   105   1
   108    35   106   1
   109    38   107   1
   110    38   108   1
   111    41   109   1
   112    42   110   1
   113    43   111   1
   114    44   112   1
   115    45   113   1
   116    48   114   1
   117    48   115   1
   118    50   116   1
   119    51   117   1
   120    52   118   1
   121    53   119   1
   122    55   120   1
   123    56   121   1
   124    57   122   1
   125    60   123   1
   126    60   124   1
   127    64   125   1
   128    65   126   1
   129    69   127   1
   130    69   128   1
   131    70   129   1
@<TRIPOS>SUBSTRUCTURE
     1  DVA      2

