@<TRIPOS>MOLECULE
1zea_ligand_039
   129   131
SMALL
GAST_HUCK
****
This file was generated by PARSER (from files_GN.cpp)

@<TRIPOS>ATOM
      1 N          51.8970   54.1704   81.8507 N.4         1 DVA       0.2381
      2 CA         52.7561   53.0318   82.2013 C.3         1 DVA       0.0675
      3 CB         53.8303   53.4456   83.2786 C.3         1 DVA       0.0139
      4 CG1        53.2099   54.1989   84.4959 C.3         1 DVA      -0.0553
      5 CG2        54.6378   52.2302   83.8130 C.3         1 DVA      -0.0553
      6 C          53.3497   52.5221   80.9574 C.2         1 DVA       0.2295
      7 O          54.2799   53.1934   80.5162 O.2         1 DVA      -0.3905
      8 N          52.9633   51.4213   80.2801 N.am        1 DVA      -0.2471
      9 CA         51.7820   50.6147   80.5092 C.3         1 DVA       0.1339
     10 CB         51.8892   49.4522   79.4910 C.3         1 DVA      -0.0104
     11 CG         53.3841   49.4000   79.1123 C.3         1 DVA      -0.0281
     12 CD         53.8007   50.8674   79.2401 C.3         1 DVA       0.0371
     13 C          50.4922   51.2984   80.4083 C.2         1 DVA       0.2039
     14 O          50.4328   52.5196   80.5570 O.2         1 DVA      -0.3944
     15 N          49.3960   50.5764   80.1405 N.am        1 DVA      -0.2664
     16 CA         48.0352   51.0499   80.0435 C.3         1 DVA       0.1201
     17 C          47.3695   51.0887   81.3319 C.2         1 DVA       0.2008
     18 O          47.7232   51.9494   82.1304 O.2         1 DVA      -0.3947
     19 N          46.4480   50.1873   81.6594 N.am        1 DVA      -0.2618
     20 CA         45.8368   50.0322   82.9502 C.3         1 DVA       0.1539
     21 C          44.6257   50.8399   83.0591 C.2         1 DVA       0.2062
     22 O          43.5519   50.3628   82.7009 O.2         1 DVA      -0.3943
     23 CB         45.6068   48.5315   83.2810 C.3         1 DVA       0.0843
     24 OG         44.3422   48.0221   82.8519 O.3         1 DVA      -0.3903
     25 N          44.7137   52.0857   83.5101 N.am        1 DVA      -0.2635
     26 CA         43.6274   52.9738   83.8292 C.3         1 DVA       0.1330
     27 C          44.1242   53.8989   84.8454 C.2         1 DVA       0.2041
     28 O          44.2542   55.0982   84.6134 O.2         1 DVA      -0.3944
     29 CB         43.0378   53.6142   82.5286 C.3         1 DVA       0.0045
     30 CG         41.6787   54.3485   82.6872 C.3         1 DVA       0.0412
     31 CD         40.6976   53.6341   83.4858 C.2         1 DVA       0.1737
     32 OE1        40.5780   52.4202   83.3866 O.2         1 DVA      -0.3973
     33 NE2        39.8826   54.2637   84.3112 N.am        1 DVA      -0.3009
     34 N          44.5126   53.3920   86.0059 N.am        1 DVA      -0.2625
     35 CA         45.1167   54.0560   87.1305 C.3         1 DVA       0.1369
     36 C          44.5347   53.5421   88.3747 C.2         1 DVA       0.2055
     37 O          44.0741   52.4042   88.4101 O.2         1 DVA      -0.3942
     38 CB         46.6607   53.8163   87.0620 C.3         1 DVA       0.0145
     39 CG         47.5096   54.5294   88.0350 C.2         1 DVA      -0.0027
     40 ND1        47.1617   55.5501   88.8434 N.2         1 DVA      -0.3252
     41 CD2        48.8611   54.2684   88.2656 C.2         1 DVA       0.0291
     42 CE1        48.2466   55.8988   89.5577 C.2         1 DVA       0.0907
     43 NE2        49.2861   55.1252   89.2023 N.pl3       1 DVA      -0.2752
     44 N          44.6002   54.2613   89.4896 N.am        1 DVA      -0.2620
     45 CA         44.1787   53.9197   90.8262 C.3         1 DVA       0.1390
     46 C          42.7890   54.2787   91.1058 C.2         1 DVA       0.2058
     47 O          42.5427   54.8652   92.1557 O.2         1 DVA      -0.3942
     48 CB         44.5154   52.4489   91.2510 C.3         1 DVA       0.0163
     49 CG         44.4961   52.2476   92.7317 C.ar        1 DVA      -0.0493
     50 CD1        45.6600   52.4938   93.4978 C.ar        1 DVA      -0.0685
     51 CD2        43.3288   51.8171   93.4001 C.ar        1 DVA      -0.0685
     52 CE1        45.6536   52.3184   94.8913 C.ar        1 DVA      -0.0398
     53 CE2        43.3145   51.6455   94.7971 C.ar        1 DVA      -0.0398
     54 CZ         44.4911   51.8721   95.5471 C.ar        1 DVA       0.0805
     55 OH         44.4633   51.6587   96.8867 O.3         1 DVA      -0.3376
     56 N          41.8201   54.0195   90.2314 N.am        1 DVA      -0.2620
     57 CA         40.4502   54.4475   90.2934 C.3         1 DVA       0.1423
     58 C          40.2758   55.4664   89.2617 C.2         1 DVA       0.2051
     59 O          39.6785   55.2171   88.2227 O.2         1 DVA      -0.3943
     60 CB         39.5177   53.2029   90.1836 C.3         1 DVA       0.0406
     61 CG         39.1743   52.6220   91.4981 C.2         1 DVA       0.0393
     62 OD1        37.8970   52.2573   91.7757 O.co2       1 DVA      -0.5688
     63 OD2        40.1243   52.4162   92.4403 O.co2       1 DVA      -0.5688
     64 N          40.7325   56.6951   89.4805 N.am        1 DVA      -0.2671
     65 CA         40.4603   57.8898   88.7335 C.3         1 DVA       0.1173
     66 C          40.3961   57.6565   87.2779 C.2         1 DVA       0.0623
     67 O          39.6763   58.4617   86.4522 O.co2       1 DVA      -0.5665
     68 OXT        41.1926   56.7181   86.7089 O.co2       1 DVA      -0.5665
     69 CB         39.2164   58.6000   89.3428 C.3         1 DVA       0.0789
     70 OG         39.1892   59.9722   88.9785 O.3         1 DVA      -0.3910
     71 H1         51.4072   54.5019   82.6802 H           1 DVA       0.2015
     72 H2         51.2135   53.8619   81.1467 H           1 DVA       0.2015
     73 H3         52.4743   54.9344   81.4817 H           1 DVA       0.2015
     74 H4         52.1135   52.2843   82.6599 H           1 DVA       0.1101
     75 H5         54.5445   54.1362   82.8145 H           1 DVA       0.0376
     76 H6         53.9822   54.4409   85.2381 H           1 DVA       0.0236
     77 H7         52.4465   53.5838   84.9825 H           1 DVA       0.0236
     78 H8         52.7552   55.1419   84.1846 H           1 DVA       0.0236
     79 H9         55.1372   51.7077   82.9956 H           1 DVA       0.0236
     80 H10        53.9731   51.5346   84.3250 H           1 DVA       0.0236
     81 H11        55.4064   52.5595   84.5176 H           1 DVA       0.0236
     82 H12        51.8697   50.1887   81.5083 H           1 DVA       0.0802
     83 H13        51.3096   49.6421   78.5787 H           1 DVA       0.0313
     84 H14        51.5633   48.4891   79.9133 H           1 DVA       0.0313
     85 H15        53.5433   49.0103   78.1052 H           1 DVA       0.0287
     86 H16        53.9279   48.7813   79.8323 H           1 DVA       0.0287
     87 H17        54.8714   50.9032   79.4843 H           1 DVA       0.0524
     88 H18        53.6329   51.4024   78.2977 H           1 DVA       0.0524
     89 H19        49.5221   49.6300   79.9141 H           1 DVA       0.1881
     90 H20        47.5049   50.3584   79.3749 H           1 DVA       0.0763
     91 H21        48.0024   52.0323   79.5747 H           1 DVA       0.0763
     92 H22        46.2217   49.5207   80.9837 H           1 DVA       0.1884
     93 H23        46.5583   50.3618   83.7062 H           1 DVA       0.0823
     94 H24        45.6667   48.3720   84.3574 H           1 DVA       0.0606
     95 H25        46.3980   47.9469   82.8021 H           1 DVA       0.0606
     96 H26        44.3632   48.0404   81.8716 H           1 DVA       0.2097
     97 H27        45.6052   52.3869   83.7619 H           1 DVA       0.1883
     98 H28        42.8259   52.3866   84.2860 H           1 DVA       0.0801
     99 H29        42.9009   52.8434   81.7638 H           1 DVA       0.0337
    100 H30        43.7555   54.3302   82.1192 H           1 DVA       0.0337
    101 H31        41.2489   54.4924   81.6937 H           1 DVA       0.0504
    102 H32        41.8520   55.3387   83.1131 H           1 DVA       0.0504
    103 H33        39.2425   53.7622   84.8512 H           1 DVA       0.1814
    104 H34        39.9262   55.2345   84.4042 H           1 DVA       0.1814
    105 H35        44.4491   52.4243   86.0849 H           1 DVA       0.1885
    106 H36        44.9285   55.1350   87.0680 H           1 DVA       0.0817
    107 H37        47.0111   54.1169   86.0700 H           1 DVA       0.0420
    108 H38        46.8563   52.7424   87.1592 H           1 DVA       0.0420
    109 H39        49.4255   53.5565   87.8002 H           1 DVA       0.0729
    110 H40        48.2898   56.6425   90.2450 H           1 DVA       0.1199
    111 H41        50.1868   55.1704   89.5582 H           1 DVA       0.2361
    112 H42        45.0031   55.1413   89.4024 H           1 DVA       0.1885
    113 H43        44.8041   54.5721   91.4422 H           1 DVA       0.0821
    114 H44        45.5092   52.1749   90.8848 H           1 DVA       0.0453
    115 H45        43.8080   51.7617   90.7713 H           1 DVA       0.0453
    116 H46        46.5217   52.8098   93.0424 H           1 DVA       0.0530
    117 H47        42.4707   51.6355   92.8770 H           1 DVA       0.0530
    118 H48        46.5073   52.4935   95.4301 H           1 DVA       0.0525
    119 H49        42.4607   51.3403   95.2631 H           1 DVA       0.0525
    120 H50        45.0875   52.3056   97.2862 H           1 DVA       0.2458
    121 H51        42.0849   53.5618   89.4133 H           1 DVA       0.1884
    122 H52        40.2208   54.9356   91.2430 H           1 DVA       0.0819
    123 H53        39.9888   52.4290   89.5719 H           1 DVA       0.0478
    124 H54        38.5815   53.4899   89.6868 H           1 DVA       0.0478
    125 H55        41.2454   56.8163   90.3007 H           1 DVA       0.1876
    126 H56        41.3151   58.5536   88.9077 H           1 DVA       0.0749
    127 H57        39.2475   58.5323   90.4336 H           1 DVA       0.0599
    128 H58        38.3021   58.1193   88.9913 H           1 DVA       0.0599
    129 H59        38.3226   60.0980   88.5450 H           1 DVA       0.2096
@<TRIPOS>BOND
     1     1     2   1
     2     2     3   1
     3     2     6   1
     4     3     4   1
     5     3     5   1
     6     6     7   2
     7     6     8  am
     8     8     9   1
     9     8    12   1
    10     9    10   1
    11     9    13   1
    12    10    11   1
    13    11    12   1
    14    13    14   2
    15    13    15  am
    16    15    16   1
    17    16    17   1
    18    17    18   2
    19    17    19  am
    20    19    20   1
    21    20    21   1
    22    20    23   1
    23    21    22   2
    24    21    25  am
    25    23    24   1
    26    25    26   1
    27    26    27   1
    28    26    29   1
    29    27    28   2
    30    27    34  am
    31    29    30   1
    32    30    31   1
    33    31    32   2
    34    31    33  am
    35    34    35   1
    36    35    36   1
    37    35    38   1
    38    36    37   2
    39    36    44  am
    40    38    39   1
    41    39    40   1
    42    39    41   2
    43    40    42   2
    44    41    43   1
    45    42    43   1
    46    44    45   1
    47    45    46   1
    48    45    48   1
    49    46    47   2
    50    46    56  am
    51    48    49   1
    52    49    50  ar
    53    49    51  ar
    54    50    52  ar
    55    51    53  ar
    56    52    54  ar
    57    53    54  ar
    58    54    55   1
    59    56    57   1
    60    57    58   1
    61    57    60   1
    62    58    59   2
    63    58    64  am
    64    60    61   1
    65    61    62  ar
    66    61    63  ar
    67    64    65   1
    68    65    66   1
    69    65    69   1
    70    66    67  ar
    71    66    68  ar
    72    69    70   1
    73     1    71   1
    74     1    72   1
    75     1    73   1
    76     2    74   1
    77     3    75   1
    78     4    76   1
    79     4    77   1
    80     4    78   1
    81     5    79   1
    82     5    80   1
    83     5    81   1
    84     9    82   1
    85    10    83   1
    86    10    84   1
    87    11    85   1
    88    11    86   1
    89    12    87   1
    90    12    88   1
    91    15    89   1
    92    16    90   1
    93    16    91   1
    94    19    92   1
    95    20    93   1
    96    23    94   1
    97    23    95   1
    98    24    96   1
    99    25    97   1
   100    26    98   1
   101    29    99   1
   102    29   100   1
   103    30   101   1
   104    30   102   1
   105    33   103   1
   106    33   104   1
   107    34   105   1
   108    35   106   1
   109    38   107   1
   110    38   108   1
   111    41   109   1
   112    42   110   1
   113    43   111   1
   114    44   112   1
   115    45   113   1
   116    48   114   1
   117    48   115   1
   118    50   116   1
   119    51   117   1
   120    52   118   1
   121    53   119   1
   122    55   120   1
   123    56   121   1
   124    57   122   1
   125    60   123   1
   126    60   124   1
   127    64   125   1
   128    65   126   1
   129    69   127   1
   130    69   128   1
   131    70   129   1
@<TRIPOS>SUBSTRUCTURE
     1  DVA      2

