@<TRIPOS>MOLECULE
1zea_ligand_064
   129   131
SMALL
GAST_HUCK
****
This file was generated by PARSER (from files_GN.cpp)

@<TRIPOS>ATOM
      1 N          44.9297   55.2830   91.5724 N.4         1 DVA       0.2381
      2 CA         44.6511   56.7107   91.3291 C.3         1 DVA       0.0675
      3 CB         45.7941   57.6400   91.8786 C.3         1 DVA       0.0139
      4 CG1        46.0674   57.4882   93.4013 C.3         1 DVA      -0.0553
      5 CG2        47.1193   57.4614   91.0834 C.3         1 DVA      -0.0553
      6 C          43.3300   57.0982   91.8307 C.2         1 DVA       0.2295
      7 O          43.0617   56.7185   92.9700 O.2         1 DVA      -0.3905
      8 N          42.4542   57.9106   91.2020 N.am        1 DVA      -0.2471
      9 CA         42.5480   58.3665   89.8305 C.3         1 DVA       0.1339
     10 CB         41.4761   59.4890   89.6804 C.3         1 DVA      -0.0104
     11 CG         41.0372   59.7969   91.1175 C.3         1 DVA      -0.0281
     12 CD         41.3220   58.4889   91.8718 C.3         1 DVA       0.0371
     13 C          42.3514   57.2858   88.8690 C.2         1 DVA       0.2039
     14 O          43.1822   57.1338   87.9734 O.2         1 DVA      -0.3944
     15 N          41.2760   56.5086   88.9416 N.am        1 DVA      -0.2664
     16 CA         40.9454   55.4068   88.0943 C.3         1 DVA       0.1201
     17 C          40.8680   55.6749   86.6656 C.2         1 DVA       0.2008
     18 O          41.2999   56.7264   86.2004 O.2         1 DVA      -0.3947
     19 N          40.3633   54.7370   85.8673 N.am        1 DVA      -0.2618
     20 CA         40.4205   54.7278   84.4299 C.3         1 DVA       0.1539
     21 C          41.7615   54.3529   84.0224 C.2         1 DVA       0.2062
     22 O          42.2442   54.8674   83.0040 O.2         1 DVA      -0.3943
     23 CB         39.3421   53.7862   83.8361 C.3         1 DVA       0.0843
     24 OG         38.9907   54.1624   82.5070 O.3         1 DVA      -0.3903
     25 N          42.4037   53.3860   84.6542 N.am        1 DVA      -0.2635
     26 CA         43.7991   53.0592   84.5343 C.3         1 DVA       0.1330
     27 C          44.3670   53.1018   85.8833 C.2         1 DVA       0.2041
     28 O          45.1749   53.9857   86.1523 O.2         1 DVA      -0.3944
     29 CB         44.0116   51.6715   83.8414 C.3         1 DVA       0.0045
     30 CG         43.9031   51.6673   82.2904 C.3         1 DVA       0.0412
     31 CD         42.9130   52.5767   81.7391 C.2         1 DVA       0.1737
     32 OE1        41.7204   52.3669   81.9135 O.2         1 DVA      -0.3973
     33 NE2        43.2651   53.5783   80.9636 N.am        1 DVA      -0.3009
     34 N          44.0372   52.1679   86.7742 N.am        1 DVA      -0.2625
     35 CA         44.6525   51.8811   88.0505 C.3         1 DVA       0.1369
     36 C          46.1134   51.8265   87.9318 C.2         1 DVA       0.2055
     37 O          46.7531   52.8666   87.8198 O.2         1 DVA      -0.3942
     38 CB         44.1713   52.7972   89.2248 C.3         1 DVA       0.0145
     39 CG         42.9699   52.3449   89.9701 C.2         1 DVA      -0.0027
     40 ND1        42.4476   53.0497   90.9934 N.2         1 DVA      -0.3252
     41 CD2        42.2175   51.1808   89.8252 C.2         1 DVA       0.0291
     42 CE1        41.4176   52.3358   91.4749 C.2         1 DVA       0.0907
     43 NE2        41.2788   51.1973   90.7772 N.pl3       1 DVA      -0.2752
     44 N          46.7214   50.6363   87.9399 N.am        1 DVA      -0.2620
     45 CA         48.0975   50.3535   87.6549 C.3         1 DVA       0.1390
     46 C          48.6346   49.7081   88.8525 C.2         1 DVA       0.2058
     47 O          49.1442   50.4271   89.7073 O.2         1 DVA      -0.3942
     48 CB         48.3086   49.5208   86.3365 C.3         1 DVA       0.0163
     49 CG         47.1315   49.3358   85.4291 C.ar        1 DVA      -0.0493
     50 CD1        47.1946   49.6637   84.0575 C.ar        1 DVA      -0.0685
     51 CD2        45.9597   48.6945   85.9077 C.ar        1 DVA      -0.0685
     52 CE1        46.1355   49.3456   83.1878 C.ar        1 DVA      -0.0398
     53 CE2        44.8896   48.4040   85.0493 C.ar        1 DVA      -0.0398
     54 CZ         44.9731   48.7162   83.6756 C.ar        1 DVA       0.0805
     55 OH         43.9329   48.4285   82.8623 O.3         1 DVA      -0.3376
     56 N          48.4419   48.4057   89.0614 N.am        1 DVA      -0.2620
     57 CA         48.7033   47.5723   90.2105 C.3         1 DVA       0.1423
     58 C          50.1161   47.4010   90.5657 C.2         1 DVA       0.2051
     59 O          50.5362   46.2676   90.7804 O.2         1 DVA      -0.3943
     60 CB         47.7577   47.8863   91.4243 C.3         1 DVA       0.0406
     61 CG         47.5444   49.3133   91.7101 C.2         1 DVA       0.0393
     62 OD1        48.3009   49.9507   92.6401 O.co2       1 DVA      -0.5688
     63 OD2        46.5463   49.9846   91.0754 O.co2       1 DVA      -0.5688
     64 N          50.9251   48.4413   90.7388 N.am        1 DVA      -0.2671
     65 CA         52.3309   48.4426   91.0500 C.3         1 DVA       0.1173
     66 C          52.5613   47.9227   92.4199 C.2         1 DVA       0.0623
     67 O          51.9406   48.5176   93.4663 O.co2       1 DVA      -0.5665
     68 OXT        53.4073   46.8984   92.6807 O.co2       1 DVA      -0.5665
     69 CB         53.2036   47.7882   89.9362 C.3         1 DVA       0.0789
     70 OG         52.9104   46.4032   89.7393 O.3         1 DVA      -0.3910
     71 H1         45.8282   55.0295   91.1520 H           1 DVA       0.2015
     72 H2         44.1876   54.7241   91.1424 H           1 DVA       0.2015
     73 H3         44.9575   55.0931   92.5784 H           1 DVA       0.2015
     74 H4         44.6602   56.7967   90.2463 H           1 DVA       0.1101
     75 H5         45.4854   58.6787   91.7144 H           1 DVA       0.0376
     76 H6         46.8551   58.1778   93.7197 H           1 DVA       0.0236
     77 H7         46.3860   56.4719   93.6449 H           1 DVA       0.0236
     78 H8         45.1753   57.7231   93.9829 H           1 DVA       0.0236
     79 H9         46.9528   57.6331   90.0174 H           1 DVA       0.0236
     80 H10        47.5258   56.4554   91.2164 H           1 DVA       0.0236
     81 H11        47.8685   58.1842   91.4243 H           1 DVA       0.0236
     82 H12        43.5287   58.8416   89.6942 H           1 DVA       0.0802
     83 H13        40.6015   59.1670   89.1056 H           1 DVA       0.0313
     84 H14        41.8870   60.3823   89.2008 H           1 DVA       0.0313
     85 H15        39.9805   60.0728   91.1758 H           1 DVA       0.0287
     86 H16        41.6451   60.6083   91.5305 H           1 DVA       0.0287
     87 H17        41.5121   58.7193   92.9265 H           1 DVA       0.0524
     88 H18        40.4647   57.8096   91.8011 H           1 DVA       0.0524
     89 H19        40.6567   56.7003   89.6623 H           1 DVA       0.1881
     90 H20        39.9698   55.0406   88.4249 H           1 DVA       0.0763
     91 H21        41.6726   54.6038   88.2555 H           1 DVA       0.0763
     92 H22        39.9863   53.9436   86.2887 H           1 DVA       0.1884
     93 H23        40.1738   55.7357   84.0726 H           1 DVA       0.0823
     94 H24        38.4364   53.8214   84.4469 H           1 DVA       0.0606
     95 H25        39.7085   52.7573   83.8147 H           1 DVA       0.0606
     96 H26        38.6719   55.0875   82.5696 H           1 DVA       0.2097
     97 H27        41.9242   52.9291   85.3660 H           1 DVA       0.1883
     98 H28        44.3247   53.8029   83.9219 H           1 DVA       0.0801
     99 H29        43.3115   50.9400   84.2602 H           1 DVA       0.0337
    100 H30        45.0253   51.3183   84.0726 H           1 DVA       0.0337
    101 H31        43.6409   50.6552   81.9665 H           1 DVA       0.0504
    102 H32        44.8932   51.8901   81.8781 H           1 DVA       0.0504
    103 H33        42.5841   54.1495   80.5672 H           1 DVA       0.1814
    104 H34        44.2063   53.7495   80.7884 H           1 DVA       0.1814
    105 H35        43.3555   51.5328   86.4980 H           1 DVA       0.1885
    106 H36        44.3138   50.8614   88.2863 H           1 DVA       0.0817
    107 H37        43.9803   53.8141   88.8665 H           1 DVA       0.0420
    108 H38        44.9764   52.8693   89.9726 H           1 DVA       0.0420
    109 H39        42.3515   50.4362   89.1382 H           1 DVA       0.0729
    110 H40        40.8339   52.6117   92.2701 H           1 DVA       0.1199
    111 H41        40.6119   50.5101   90.9420 H           1 DVA       0.2361
    112 H42        46.1512   49.8629   88.1014 H           1 DVA       0.1885
    113 H43        48.6369   51.3023   87.5125 H           1 DVA       0.0821
    114 H44        48.6706   48.5129   86.5637 H           1 DVA       0.0453
    115 H45        49.1261   49.9955   85.7886 H           1 DVA       0.0453
    116 H46        48.0243   50.1243   83.6730 H           1 DVA       0.0530
    117 H47        45.8920   48.4107   86.8882 H           1 DVA       0.0530
    118 H48        46.2127   49.5732   82.1996 H           1 DVA       0.0525
    119 H49        44.0608   47.9306   85.4183 H           1 DVA       0.0525
    120 H50        44.3095   48.3398   81.9652 H           1 DVA       0.2458
    121 H51        48.0258   47.9259   88.3262 H           1 DVA       0.1884
    122 H52        48.3656   46.5859   89.8751 H           1 DVA       0.0819
    123 H53        48.1397   47.3988   92.3308 H           1 DVA       0.0478
    124 H54        46.7792   47.4334   91.2114 H           1 DVA       0.0478
    125 H55        50.5271   49.3219   90.6491 H           1 DVA       0.1876
    126 H56        52.6235   49.4957   91.0789 H           1 DVA       0.0749
    127 H57        54.2623   47.8784   90.2039 H           1 DVA       0.0599
    128 H58        53.0480   48.3166   88.9874 H           1 DVA       0.0599
    129 H59        53.5316   46.0878   89.0408 H           1 DVA       0.2096
@<TRIPOS>BOND
     1     1     2   1
     2     2     3   1
     3     2     6   1
     4     3     4   1
     5     3     5   1
     6     6     7   2
     7     6     8  am
     8     8     9   1
     9     8    12   1
    10     9    10   1
    11     9    13   1
    12    10    11   1
    13    11    12   1
    14    13    14   2
    15    13    15  am
    16    15    16   1
    17    16    17   1
    18    17    18   2
    19    17    19  am
    20    19    20   1
    21    20    21   1
    22    20    23   1
    23    21    22   2
    24    21    25  am
    25    23    24   1
    26    25    26   1
    27    26    27   1
    28    26    29   1
    29    27    28   2
    30    27    34  am
    31    29    30   1
    32    30    31   1
    33    31    32   2
    34    31    33  am
    35    34    35   1
    36    35    36   1
    37    35    38   1
    38    36    37   2
    39    36    44  am
    40    38    39   1
    41    39    40   1
    42    39    41   2
    43    40    42   2
    44    41    43   1
    45    42    43   1
    46    44    45   1
    47    45    46   1
    48    45    48   1
    49    46    47   2
    50    46    56  am
    51    48    49   1
    52    49    50  ar
    53    49    51  ar
    54    50    52  ar
    55    51    53  ar
    56    52    54  ar
    57    53    54  ar
    58    54    55   1
    59    56    57   1
    60    57    58   1
    61    57    60   1
    62    58    59   2
    63    58    64  am
    64    60    61   1
    65    61    62  ar
    66    61    63  ar
    67    64    65   1
    68    65    66   1
    69    65    69   1
    70    66    67  ar
    71    66    68  ar
    72    69    70   1
    73     1    71   1
    74     1    72   1
    75     1    73   1
    76     2    74   1
    77     3    75   1
    78     4    76   1
    79     4    77   1
    80     4    78   1
    81     5    79   1
    82     5    80   1
    83     5    81   1
    84     9    82   1
    85    10    83   1
    86    10    84   1
    87    11    85   1
    88    11    86   1
    89    12    87   1
    90    12    88   1
    91    15    89   1
    92    16    90   1
    93    16    91   1
    94    19    92   1
    95    20    93   1
    96    23    94   1
    97    23    95   1
    98    24    96   1
    99    25    97   1
   100    26    98   1
   101    29    99   1
   102    29   100   1
   103    30   101   1
   104    30   102   1
   105    33   103   1
   106    33   104   1
   107    34   105   1
   108    35   106   1
   109    38   107   1
   110    38   108   1
   111    41   109   1
   112    42   110   1
   113    43   111   1
   114    44   112   1
   115    45   113   1
   116    48   114   1
   117    48   115   1
   118    50   116   1
   119    51   117   1
   120    52   118   1
   121    53   119   1
   122    55   120   1
   123    56   121   1
   124    57   122   1
   125    60   123   1
   126    60   124   1
   127    64   125   1
   128    65   126   1
   129    69   127   1
   130    69   128   1
   131    70   129   1
@<TRIPOS>SUBSTRUCTURE
     1  DVA      2

