@<TRIPOS>MOLECULE
1zea_ligand_079
   129   131
SMALL
GAST_HUCK
****
This file was generated by PARSER (from files_GN.cpp)

@<TRIPOS>ATOM
      1 N          53.8279   55.5098   79.5788 N.4         1 DVA       0.2381
      2 CA         54.3414   54.1253   79.6024 C.3         1 DVA       0.0675
      3 CB         55.8167   54.0256   79.0736 C.3         1 DVA       0.0139
      4 CG1        56.0234   54.5371   77.6176 C.3         1 DVA      -0.0553
      5 CG2        56.8172   54.7382   80.0284 C.3         1 DVA      -0.0553
      6 C          53.4024   53.2334   78.9070 C.2         1 DVA       0.2295
      7 O          53.1023   53.5712   77.7664 O.2         1 DVA      -0.3905
      8 N          52.8403   52.1159   79.4127 N.am        1 DVA      -0.2471
      9 CA         53.0682   51.5589   80.7299 C.3         1 DVA       0.1339
     10 CB         52.5747   50.0952   80.5922 C.3         1 DVA      -0.0104
     11 CG         51.4576   50.1746   79.5512 C.3         1 DVA      -0.0281
     12 CD         51.9307   51.3141   78.6362 C.3         1 DVA       0.0371
     13 C          52.4078   52.2919   81.8155 C.2         1 DVA       0.2039
     14 O          51.8691   53.3670   81.5761 O.2         1 DVA      -0.3944
     15 N          52.4281   51.8077   83.0546 N.am        1 DVA      -0.2664
     16 CA         51.9647   52.4200   84.2683 C.3         1 DVA       0.1201
     17 C          50.7124   53.1477   84.1644 C.2         1 DVA       0.2008
     18 O          50.6964   54.3230   84.5098 O.2         1 DVA      -0.3947
     19 N          49.6615   52.5630   83.6035 N.am        1 DVA      -0.2618
     20 CA         48.4329   53.1832   83.1627 C.3         1 DVA       0.1539
     21 C          47.3819   52.1727   83.0708 C.2         1 DVA       0.2062
     22 O          46.8667   51.9454   81.9856 O.2         1 DVA      -0.3943
     23 CB         47.9194   54.3888   84.0098 C.3         1 DVA       0.0843
     24 OG         47.9461   54.1154   85.4041 O.3         1 DVA      -0.3903
     25 N          46.9182   51.6120   84.1841 N.am        1 DVA      -0.2635
     26 CA         45.7525   50.7904   84.3547 C.3         1 DVA       0.1330
     27 C          44.5380   51.5947   84.2057 C.2         1 DVA       0.2041
     28 O          43.9030   51.5400   83.1574 O.2         1 DVA      -0.3944
     29 CB         45.8389   49.4375   83.5630 C.3         1 DVA       0.0045
     30 CG         44.5345   48.6103   83.3376 C.3         1 DVA       0.0412
     31 CD         43.4874   48.7733   84.3298 C.2         1 DVA       0.1737
     32 OE1        42.4020   49.2409   83.9981 O.2         1 DVA      -0.3973
     33 NE2        43.6730   48.5170   85.6062 N.am        1 DVA      -0.3009
     34 N          44.0820   52.2805   85.2451 N.am        1 DVA      -0.2625
     35 CA         42.7762   52.8704   85.4660 C.3         1 DVA       0.1369
     36 C          42.6111   53.2381   86.8811 C.2         1 DVA       0.2055
     37 O          43.5860   53.5014   87.5890 O.2         1 DVA      -0.3942
     38 CB         42.4609   54.1031   84.5462 C.3         1 DVA       0.0145
     39 CG         42.0659   53.7742   83.1606 C.2         1 DVA      -0.0027
     40 ND1        42.6271   54.2738   82.0441 N.2         1 DVA      -0.3252
     41 CD2        41.0105   52.9549   82.7679 C.2         1 DVA       0.0291
     42 CE1        41.9563   53.7640   80.9965 C.2         1 DVA       0.0907
     43 NE2        40.9724   52.9648   81.4313 N.pl3       1 DVA      -0.2752
     44 N          41.3913   53.3187   87.4091 N.am        1 DVA      -0.2620
     45 CA         41.0069   53.6243   88.7709 C.3         1 DVA       0.1390
     46 C          41.0130   52.4662   89.6688 C.2         1 DVA       0.2058
     47 O          41.6540   51.4558   89.3970 O.2         1 DVA      -0.3942
     48 CB         41.7460   54.8653   89.3957 C.3         1 DVA       0.0163
     49 CG         41.1777   56.1639   88.9450 C.ar        1 DVA      -0.0493
     50 CD1        41.4613   56.6643   87.6531 C.ar        1 DVA      -0.0685
     51 CD2        40.3203   56.9100   89.7887 C.ar        1 DVA      -0.0685
     52 CE1        40.8918   57.8723   87.2109 C.ar        1 DVA      -0.0398
     53 CE2        39.7386   58.1083   89.3423 C.ar        1 DVA      -0.0398
     54 CZ         40.0257   58.5922   88.0534 C.ar        1 DVA       0.0805
     55 OH         39.4935   59.7629   87.6283 O.3         1 DVA      -0.3376
     56 N          40.2528   52.5208   90.7616 N.am        1 DVA      -0.2620
     57 CA         39.9888   51.4828   91.7185 C.3         1 DVA       0.1423
     58 C          40.6796   51.8145   92.9645 C.2         1 DVA       0.2051
     59 O          40.0485   51.9929   94.0014 O.2         1 DVA      -0.3943
     60 CB         38.4365   51.3384   91.8248 C.3         1 DVA       0.0406
     61 CG         38.0063   50.1616   92.6080 C.2         1 DVA       0.0393
     62 OD1        37.6574   50.3089   93.9081 O.co2       1 DVA      -0.5688
     63 OD2        37.6444   49.0203   91.9804 O.co2       1 DVA      -0.5688
     64 N          41.9983   51.9346   92.9538 N.am        1 DVA      -0.2671
     65 CA         42.8564   52.1946   94.0747 C.3         1 DVA       0.1173
     66 C          43.9093   51.1581   94.0858 C.2         1 DVA       0.0623
     67 O          44.8941   51.1659   93.1604 O.co2       1 DVA      -0.5665
     68 OXT        43.7443   50.0316   94.8211 O.co2       1 DVA      -0.5665
     69 CB         43.4455   53.6231   93.9724 C.3         1 DVA       0.0789
     70 OG         42.4100   54.6019   94.0426 O.3         1 DVA      -0.3910
     71 H1         54.4419   56.1193   80.1231 H           1 DVA       0.2015
     72 H2         52.8900   55.5360   79.9857 H           1 DVA       0.2015
     73 H3         53.7838   55.8508   78.6151 H           1 DVA       0.2015
     74 H4         54.3706   53.8652   80.6580 H           1 DVA       0.1101
     75 H5         56.0904   52.9640   79.0784 H           1 DVA       0.0376
     76 H6         57.0746   54.4568   77.3311 H           1 DVA       0.0236
     77 H7         55.7201   55.5811   77.5253 H           1 DVA       0.0236
     78 H8         55.4491   53.9392   76.9095 H           1 DVA       0.0236
     79 H9         56.7105   54.3604   81.0466 H           1 DVA       0.0236
     80 H10        56.6455   55.8160   80.0364 H           1 DVA       0.0236
     81 H11        57.8443   54.5552   79.7097 H           1 DVA       0.0236
     82 H12        54.1412   51.5221   80.9450 H           1 DVA       0.0802
     83 H13        52.2163   49.6540   81.5241 H           1 DVA       0.0313
     84 H14        53.3842   49.4659   80.2052 H           1 DVA       0.0313
     85 H15        50.5109   50.4370   80.0333 H           1 DVA       0.0287
     86 H16        51.3385   49.2330   79.0086 H           1 DVA       0.0287
     87 H17        52.4471   50.9022   77.7629 H           1 DVA       0.0524
     88 H18        51.0699   51.9003   78.3006 H           1 DVA       0.0524
     89 H19        52.8727   50.9547   83.1703 H           1 DVA       0.1881
     90 H20        52.7577   53.0800   84.6270 H           1 DVA       0.0763
     91 H21        51.8429   51.6327   85.0148 H           1 DVA       0.0763
     92 H22        49.7812   51.6253   83.3583 H           1 DVA       0.1884
     93 H23        48.6329   53.5780   82.1572 H           1 DVA       0.0823
     94 H24        46.8889   54.6447   83.7273 H           1 DVA       0.0606
     95 H25        48.5219   55.2761   83.8180 H           1 DVA       0.0606
     96 H26        47.6077   54.9313   85.8363 H           1 DVA       0.2097
     97 H27        47.4067   51.8177   84.9982 H           1 DVA       0.1883
     98 H28        45.7931   50.4860   85.4084 H           1 DVA       0.0801
     99 H29        46.5475   48.7885   84.0920 H           1 DVA       0.0337
    100 H30        46.2778   49.6131   82.5805 H           1 DVA       0.0337
    101 H31        44.7890   47.5474   83.2941 H           1 DVA       0.0504
    102 H32        44.1452   48.8747   82.3500 H           1 DVA       0.0504
    103 H33        42.9737   48.7397   86.2412 H           1 DVA       0.1814
    104 H34        44.5251   48.1712   85.9219 H           1 DVA       0.1814
    105 H35        44.6662   52.2757   86.0252 H           1 DVA       0.1885
    106 H36        42.0390   52.0848   85.2819 H           1 DVA       0.0817
    107 H37        43.3270   54.7699   84.5322 H           1 DVA       0.0420
    108 H38        41.6204   54.6765   84.9496 H           1 DVA       0.0420
    109 H39        40.3714   52.4490   83.3837 H           1 DVA       0.0729
    110 H40        42.1558   53.9698   80.0167 H           1 DVA       0.1199
    111 H41        40.3310   52.4935   80.8750 H           1 DVA       0.2361
    112 H42        40.6543   53.0916   86.8141 H           1 DVA       0.1885
    113 H43        39.9500   53.8928   88.6815 H           1 DVA       0.0821
    114 H44        42.8160   54.8449   89.1624 H           1 DVA       0.0453
    115 H45        41.6843   54.8234   90.4902 H           1 DVA       0.0453
    116 H46        42.0932   56.1555   87.0302 H           1 DVA       0.0530
    117 H47        40.1110   56.5831   90.7356 H           1 DVA       0.0530
    118 H48        41.1138   58.2255   86.2777 H           1 DVA       0.0525
    119 H49        39.1213   58.6341   89.9647 H           1 DVA       0.0525
    120 H50        38.5719   59.7694   87.9663 H           1 DVA       0.2458
    121 H51        39.7978   53.3653   90.9139 H           1 DVA       0.1884
    122 H52        40.3851   50.5240   91.3697 H           1 DVA       0.0819
    123 H53        38.0060   51.2518   90.8230 H           1 DVA       0.0478
    124 H54        38.0153   52.2452   92.2700 H           1 DVA       0.0478
    125 H55        42.4373   51.8417   92.0926 H           1 DVA       0.1876
    126 H56        42.3118   52.1328   95.0215 H           1 DVA       0.0749
    127 H57        43.9756   53.7567   93.0274 H           1 DVA       0.0599
    128 H58        44.1466   53.8037   94.7921 H           1 DVA       0.0599
    129 H59        42.0374   54.5261   94.9478 H           1 DVA       0.2096
@<TRIPOS>BOND
     1     1     2   1
     2     2     3   1
     3     2     6   1
     4     3     4   1
     5     3     5   1
     6     6     7   2
     7     6     8  am
     8     8     9   1
     9     8    12   1
    10     9    10   1
    11     9    13   1
    12    10    11   1
    13    11    12   1
    14    13    14   2
    15    13    15  am
    16    15    16   1
    17    16    17   1
    18    17    18   2
    19    17    19  am
    20    19    20   1
    21    20    21   1
    22    20    23   1
    23    21    22   2
    24    21    25  am
    25    23    24   1
    26    25    26   1
    27    26    27   1
    28    26    29   1
    29    27    28   2
    30    27    34  am
    31    29    30   1
    32    30    31   1
    33    31    32   2
    34    31    33  am
    35    34    35   1
    36    35    36   1
    37    35    38   1
    38    36    37   2
    39    36    44  am
    40    38    39   1
    41    39    40   1
    42    39    41   2
    43    40    42   2
    44    41    43   1
    45    42    43   1
    46    44    45   1
    47    45    46   1
    48    45    48   1
    49    46    47   2
    50    46    56  am
    51    48    49   1
    52    49    50  ar
    53    49    51  ar
    54    50    52  ar
    55    51    53  ar
    56    52    54  ar
    57    53    54  ar
    58    54    55   1
    59    56    57   1
    60    57    58   1
    61    57    60   1
    62    58    59   2
    63    58    64  am
    64    60    61   1
    65    61    62  ar
    66    61    63  ar
    67    64    65   1
    68    65    66   1
    69    65    69   1
    70    66    67  ar
    71    66    68  ar
    72    69    70   1
    73     1    71   1
    74     1    72   1
    75     1    73   1
    76     2    74   1
    77     3    75   1
    78     4    76   1
    79     4    77   1
    80     4    78   1
    81     5    79   1
    82     5    80   1
    83     5    81   1
    84     9    82   1
    85    10    83   1
    86    10    84   1
    87    11    85   1
    88    11    86   1
    89    12    87   1
    90    12    88   1
    91    15    89   1
    92    16    90   1
    93    16    91   1
    94    19    92   1
    95    20    93   1
    96    23    94   1
    97    23    95   1
    98    24    96   1
    99    25    97   1
   100    26    98   1
   101    29    99   1
   102    29   100   1
   103    30   101   1
   104    30   102   1
   105    33   103   1
   106    33   104   1
   107    34   105   1
   108    35   106   1
   109    38   107   1
   110    38   108   1
   111    41   109   1
   112    42   110   1
   113    43   111   1
   114    44   112   1
   115    45   113   1
   116    48   114   1
   117    48   115   1
   118    50   116   1
   119    51   117   1
   120    52   118   1
   121    53   119   1
   122    55   120   1
   123    56   121   1
   124    57   122   1
   125    60   123   1
   126    60   124   1
   127    64   125   1
   128    65   126   1
   129    69   127   1
   130    69   128   1
   131    70   129   1
@<TRIPOS>SUBSTRUCTURE
     1  DVA      2

