@<TRIPOS>MOLECULE
1zea_ligand_007
   129   131
SMALL
GAST_HUCK
****
This file was generated by PARSER (from files_GN.cpp)

@<TRIPOS>ATOM
      1 N          51.8259   49.4726   78.2683 N.4         1 DVA       0.2381
      2 CA         51.9403   50.9077   77.9339 C.3         1 DVA       0.0675
      3 CB         52.8283   51.1129   76.6586 C.3         1 DVA       0.0139
      4 CG1        52.8189   52.5911   76.1762 C.3         1 DVA      -0.0553
      5 CG2        54.2871   50.5806   76.7676 C.3         1 DVA      -0.0553
      6 C          52.3770   51.6680   79.1163 C.2         1 DVA       0.2295
      7 O          53.4332   51.3067   79.6175 O.2         1 DVA      -0.3905
      8 N          51.7194   52.7015   79.6856 N.am        1 DVA      -0.2471
      9 CA         50.3712   53.1367   79.3794 C.3         1 DVA       0.1339
     10 CB         50.1567   54.4154   80.2416 C.3         1 DVA      -0.0104
     11 CG         51.5711   54.8604   80.6184 C.3         1 DVA      -0.0281
     12 CD         52.3410   53.5336   80.6808 C.3         1 DVA       0.0371
     13 C          49.3275   52.1488   79.6378 C.2         1 DVA       0.2039
     14 O          49.6183   51.0254   80.0227 O.2         1 DVA      -0.3944
     15 N          48.0455   52.4684   79.4696 N.am        1 DVA      -0.2664
     16 CA         46.9196   51.6037   79.6706 C.3         1 DVA       0.1201
     17 C          46.8045   51.0247   80.9972 C.2         1 DVA       0.2008
     18 O          47.6335   50.1703   81.3359 O.2         1 DVA      -0.3947
     19 N          45.7398   51.2569   81.7529 N.am        1 DVA      -0.2618
     20 CA         45.5025   50.7269   83.0666 C.3         1 DVA       0.1539
     21 C          44.1627   51.1200   83.4885 C.2         1 DVA       0.2062
     22 O          43.2320   50.3452   83.2791 O.2         1 DVA      -0.3943
     23 CB         45.6572   49.1809   83.1734 C.3         1 DVA       0.0843
     24 OG         46.9127   48.7202   82.6782 O.3         1 DVA      -0.3903
     25 N          43.9435   52.2991   84.0902 N.am        1 DVA      -0.2635
     26 CA         42.6885   52.7538   84.6214 C.3         1 DVA       0.1330
     27 C          42.9652   53.3046   85.9487 C.2         1 DVA       0.2041
     28 O          43.4995   54.4048   86.0510 O.2         1 DVA      -0.3944
     29 CB         41.9772   53.7172   83.6070 C.3         1 DVA       0.0045
     30 CG         40.4117   53.6398   83.6493 C.3         1 DVA       0.0412
     31 CD         39.7795   53.6261   82.3433 C.2         1 DVA       0.1737
     32 OE1        38.7189   54.2186   82.1462 O.2         1 DVA      -0.3973
     33 NE2        40.2318   52.8606   81.3783 N.am        1 DVA      -0.3009
     34 N          42.8412   52.5018   86.9983 N.am        1 DVA      -0.2625
     35 CA         43.3679   52.7252   88.3181 C.3         1 DVA       0.1369
     36 C          42.5111   53.6165   89.0947 C.2         1 DVA       0.2055
     37 O          43.0176   54.5997   89.6174 O.2         1 DVA      -0.3942
     38 CB         43.6007   51.3612   89.0343 C.3         1 DVA       0.0145
     39 CG         44.3021   51.4902   90.3290 C.2         1 DVA      -0.0027
     40 ND1        45.4445   50.8598   90.6582 N.2         1 DVA      -0.3252
     41 CD2        43.9161   52.2451   91.4342 C.2         1 DVA       0.0291
     42 CE1        45.7645   51.2227   91.9099 C.2         1 DVA       0.0907
     43 NE2        44.8351   52.0577   92.3867 N.pl3       1 DVA      -0.2752
     44 N          41.2253   53.3333   89.2734 N.am        1 DVA      -0.2620
     45 CA         40.3070   54.0602   90.1127 C.3         1 DVA       0.1390
     46 C          40.0500   55.3900   89.5386 C.2         1 DVA       0.2058
     47 O          39.5500   55.4299   88.4280 O.2         1 DVA      -0.3942
     48 CB         38.9736   53.2570   90.3561 C.3         1 DVA       0.0163
     49 CG         38.6681   52.8941   91.7692 C.ar        1 DVA      -0.0493
     50 CD1        38.0295   51.6704   92.0950 C.ar        1 DVA      -0.0685
     51 CD2        38.9175   53.8122   92.8244 C.ar        1 DVA      -0.0685
     52 CE1        37.6463   51.3787   93.4103 C.ar        1 DVA      -0.0398
     53 CE2        38.5429   53.5174   94.1451 C.ar        1 DVA      -0.0398
     54 CZ         37.9012   52.2984   94.4483 C.ar        1 DVA       0.0805
     55 OH         37.5307   51.9874   95.7166 O.3         1 DVA      -0.3376
     56 N          40.3634   56.4810   90.2266 N.am        1 DVA      -0.2620
     57 CA         40.1701   57.8862   89.9401 C.3         1 DVA       0.1423
     58 C          41.3996   58.6389   90.1892 C.2         1 DVA       0.2051
     59 O          41.3013   59.7053   90.7942 O.2         1 DVA      -0.3943
     60 CB         39.4850   58.3387   88.6092 C.3         1 DVA       0.0406
     61 CG         40.1784   58.0493   87.3367 C.2         1 DVA       0.0393
     62 OD1        41.2336   57.2124   87.2501 O.co2       1 DVA      -0.5688
     63 OD2        39.7037   58.5887   86.1928 O.co2       1 DVA      -0.5688
     64 N          42.5724   58.2278   89.7159 N.am        1 DVA      -0.2671
     65 CA         43.8846   58.8245   89.7615 C.3         1 DVA       0.1173
     66 C          43.9594   60.2727   90.0644 C.2         1 DVA       0.0623
     67 O          43.8767   60.7108   91.3454 O.co2       1 DVA      -0.5665
     68 OXT        43.6376   61.1587   89.0998 O.co2       1 DVA      -0.5665
     69 CB         44.8093   57.9941   90.6917 C.3         1 DVA       0.0789
     70 OG         44.8392   56.6206   90.3218 O.3         1 DVA      -0.3910
     71 H1         51.6871   48.9271   77.4169 H           1 DVA       0.2015
     72 H2         51.0228   49.3121   78.8814 H           1 DVA       0.2015
     73 H3         52.6780   49.1484   78.7314 H           1 DVA       0.2015
     74 H4         50.9321   51.2013   77.6424 H           1 DVA       0.1101
     75 H5         52.3594   50.5326   75.8602 H           1 DVA       0.0376
     76 H6         53.3643   52.6895   75.2346 H           1 DVA       0.0236
     77 H7         53.2840   53.2459   76.9161 H           1 DVA       0.0236
     78 H8         51.7936   52.9284   76.0078 H           1 DVA       0.0236
     79 H9         54.2970   49.5524   77.1343 H           1 DVA       0.0236
     80 H10        54.8863   51.1981   77.4385 H           1 DVA       0.0236
     81 H11        54.7654   50.5899   75.7852 H           1 DVA       0.0236
     82 H12        50.3309   53.4330   78.3285 H           1 DVA       0.0802
     83 H13        49.5980   54.2059   81.1632 H           1 DVA       0.0313
     84 H14        49.6327   55.2010   79.6919 H           1 DVA       0.0313
     85 H15        51.6016   55.3936   81.5720 H           1 DVA       0.0287
     86 H16        51.9874   55.4996   79.8322 H           1 DVA       0.0287
     87 H17        53.3992   53.7257   80.4756 H           1 DVA       0.0524
     88 H18        52.2417   53.0677   81.6674 H           1 DVA       0.0524
     89 H19        47.8535   53.3626   79.1463 H           1 DVA       0.1881
     90 H20        46.9283   50.8043   78.9224 H           1 DVA       0.0763
     91 H21        46.0297   52.2081   79.4511 H           1 DVA       0.0763
     92 H22        45.0981   51.9041   81.4143 H           1 DVA       0.1884
     93 H23        46.2387   51.1892   83.7405 H           1 DVA       0.0823
     94 H24        44.8776   48.6556   82.6146 H           1 DVA       0.0606
     95 H25        45.5825   48.8878   84.2306 H           1 DVA       0.0606
     96 H26        46.7100   48.3690   81.7802 H           1 DVA       0.2097
     97 H27        44.7172   52.8864   84.2090 H           1 DVA       0.1883
     98 H28        42.0424   51.8788   84.7640 H           1 DVA       0.0801
     99 H29        42.3336   53.4754   82.5983 H           1 DVA       0.0337
    100 H30        42.2939   54.7499   83.7865 H           1 DVA       0.0337
    101 H31        40.0353   54.4788   84.2416 H           1 DVA       0.0504
    102 H32        40.0788   52.7311   84.1600 H           1 DVA       0.0504
    103 H33        39.7812   52.8340   80.5208 H           1 DVA       0.1814
    104 H34        41.0464   52.3462   81.5099 H           1 DVA       0.1814
    105 H35        42.4273   51.6389   86.8340 H           1 DVA       0.1885
    106 H36        44.3544   53.1889   88.1794 H           1 DVA       0.0817
    107 H37        44.2072   50.7301   88.3809 H           1 DVA       0.0420
    108 H38        42.6514   50.8407   89.1882 H           1 DVA       0.0420
    109 H39        43.0837   52.8284   91.5176 H           1 DVA       0.0729
    110 H40        46.5930   50.9081   92.4190 H           1 DVA       0.1199
    111 H41        44.8295   52.4582   93.2712 H           1 DVA       0.2361
    112 H42        40.8884   52.5368   88.8322 H           1 DVA       0.1885
    113 H43        40.8167   54.1674   91.0762 H           1 DVA       0.0821
    114 H44        38.9808   52.3548   89.7376 H           1 DVA       0.0453
    115 H45        38.1084   53.8249   90.0046 H           1 DVA       0.0453
    116 H46        37.8224   50.9880   91.3620 H           1 DVA       0.0530
    117 H47        39.3798   54.7019   92.6314 H           1 DVA       0.0530
    118 H48        37.1759   50.4944   93.6223 H           1 DVA       0.0525
    119 H49        38.7334   54.1929   94.8913 H           1 DVA       0.0525
    120 H50        37.4255   52.8400   96.1914 H           1 DVA       0.2458
    121 H51        40.7491   56.3110   91.0999 H           1 DVA       0.1884
    122 H52        39.4638   58.1751   90.7259 H           1 DVA       0.0819
    123 H53        39.3386   59.4222   88.6535 H           1 DVA       0.0478
    124 H54        38.4883   57.8971   88.5589 H           1 DVA       0.0478
    125 H55        42.5470   57.3666   89.2699 H           1 DVA       0.1876
    126 H56        44.2883   58.7178   88.7509 H           1 DVA       0.0749
    127 H57        44.4600   58.0608   91.7224 H           1 DVA       0.0599
    128 H58        45.8329   58.3697   90.6485 H           1 DVA       0.0599
    129 H59        45.2731   56.5955   89.4423 H           1 DVA       0.2096
@<TRIPOS>BOND
     1     1     2   1
     2     2     3   1
     3     2     6   1
     4     3     4   1
     5     3     5   1
     6     6     7   2
     7     6     8  am
     8     8     9   1
     9     8    12   1
    10     9    10   1
    11     9    13   1
    12    10    11   1
    13    11    12   1
    14    13    14   2
    15    13    15  am
    16    15    16   1
    17    16    17   1
    18    17    18   2
    19    17    19  am
    20    19    20   1
    21    20    21   1
    22    20    23   1
    23    21    22   2
    24    21    25  am
    25    23    24   1
    26    25    26   1
    27    26    27   1
    28    26    29   1
    29    27    28   2
    30    27    34  am
    31    29    30   1
    32    30    31   1
    33    31    32   2
    34    31    33  am
    35    34    35   1
    36    35    36   1
    37    35    38   1
    38    36    37   2
    39    36    44  am
    40    38    39   1
    41    39    40   1
    42    39    41   2
    43    40    42   2
    44    41    43   1
    45    42    43   1
    46    44    45   1
    47    45    46   1
    48    45    48   1
    49    46    47   2
    50    46    56  am
    51    48    49   1
    52    49    50  ar
    53    49    51  ar
    54    50    52  ar
    55    51    53  ar
    56    52    54  ar
    57    53    54  ar
    58    54    55   1
    59    56    57   1
    60    57    58   1
    61    57    60   1
    62    58    59   2
    63    58    64  am
    64    60    61   1
    65    61    62  ar
    66    61    63  ar
    67    64    65   1
    68    65    66   1
    69    65    69   1
    70    66    67  ar
    71    66    68  ar
    72    69    70   1
    73     1    71   1
    74     1    72   1
    75     1    73   1
    76     2    74   1
    77     3    75   1
    78     4    76   1
    79     4    77   1
    80     4    78   1
    81     5    79   1
    82     5    80   1
    83     5    81   1
    84     9    82   1
    85    10    83   1
    86    10    84   1
    87    11    85   1
    88    11    86   1
    89    12    87   1
    90    12    88   1
    91    15    89   1
    92    16    90   1
    93    16    91   1
    94    19    92   1
    95    20    93   1
    96    23    94   1
    97    23    95   1
    98    24    96   1
    99    25    97   1
   100    26    98   1
   101    29    99   1
   102    29   100   1
   103    30   101   1
   104    30   102   1
   105    33   103   1
   106    33   104   1
   107    34   105   1
   108    35   106   1
   109    38   107   1
   110    38   108   1
   111    41   109   1
   112    42   110   1
   113    43   111   1
   114    44   112   1
   115    45   113   1
   116    48   114   1
   117    48   115   1
   118    50   116   1
   119    51   117   1
   120    52   118   1
   121    53   119   1
   122    55   120   1
   123    56   121   1
   124    57   122   1
   125    60   123   1
   126    60   124   1
   127    64   125   1
   128    65   126   1
   129    69   127   1
   130    69   128   1
   131    70   129   1
@<TRIPOS>SUBSTRUCTURE
     1  DVA      2

