@<TRIPOS>MOLECULE
1zea_ligand_056
   129   131
SMALL
GAST_HUCK
****
This file was generated by PARSER (from files_GN.cpp)

@<TRIPOS>ATOM
      1 N          35.4786   48.7074   94.5126 N.4         1 DVA       0.2381
      2 CA         36.9330   48.8572   94.6948 C.3         1 DVA       0.0675
      3 CB         37.7548   47.7221   93.9858 C.3         1 DVA       0.0139
      4 CG1        37.2487   46.2775   94.2784 C.3         1 DVA      -0.0553
      5 CG2        37.8266   47.9523   92.4526 C.3         1 DVA      -0.0553
      6 C          37.2663   49.0141   96.1181 C.2         1 DVA       0.2295
      7 O          36.6916   48.2396   96.8749 O.2         1 DVA      -0.3905
      8 N          38.1738   49.8723   96.6358 N.am        1 DVA      -0.2471
      9 CA         38.9807   50.8238   95.8987 C.3         1 DVA       0.1339
     10 CB         39.9080   51.4849   96.9519 C.3         1 DVA      -0.0104
     11 CG         39.9331   50.4875   98.1097 C.3         1 DVA      -0.0281
     12 CD         38.5557   49.8148   98.0240 C.3         1 DVA       0.0371
     13 C          38.2886   51.8647   95.1408 C.2         1 DVA       0.2039
     14 O          37.1052   52.0924   95.3738 O.2         1 DVA      -0.3944
     15 N          38.9595   52.5363   94.2144 N.am        1 DVA      -0.2664
     16 CA         38.4560   53.5223   93.3092 C.3         1 DVA       0.1201
     17 C          38.6555   53.0588   91.9532 C.2         1 DVA       0.2008
     18 O          37.7866   52.3703   91.4387 O.2         1 DVA      -0.3947
     19 N          39.7977   53.3241   91.3216 N.am        1 DVA      -0.2618
     20 CA         40.1889   52.8941   90.0070 C.3         1 DVA       0.1539
     21 C          40.4716   54.0718   89.1899 C.2         1 DVA       0.2062
     22 O          39.5817   54.4677   88.4469 O.2         1 DVA      -0.3943
     23 CB         41.3711   51.8922   90.1296 C.3         1 DVA       0.0843
     24 OG         41.9403   51.6084   88.8565 O.3         1 DVA      -0.3903
     25 N          41.6483   54.6983   89.2167 N.am        1 DVA      -0.2635
     26 CA         42.0460   55.8507   88.4403 C.3         1 DVA       0.1330
     27 C          41.8947   55.5753   87.0096 C.2         1 DVA       0.2041
     28 O          40.9803   56.1068   86.3868 O.2         1 DVA      -0.3944
     29 CB         41.3424   57.1407   88.9880 C.3         1 DVA       0.0045
     30 CG         41.4508   58.3961   88.0659 C.3         1 DVA       0.0412
     31 CD         40.1539   58.8847   87.6269 C.2         1 DVA       0.1737
     32 OE1        39.7612   58.6667   86.4887 O.2         1 DVA      -0.3973
     33 NE2        39.3495   59.5243   88.4513 N.am        1 DVA      -0.3009
     34 N          42.6995   54.7034   86.4062 N.am        1 DVA      -0.2625
     35 CA         42.6182   54.2588   85.0348 C.3         1 DVA       0.1369
     36 C          43.8748   53.6734   84.5556 C.2         1 DVA       0.2055
     37 O          43.8154   52.8376   83.6606 O.2         1 DVA      -0.3942
     38 CB         41.3926   53.2823   84.8616 C.3         1 DVA       0.0145
     39 CG         40.5173   53.6644   83.7342 C.2         1 DVA      -0.0027
     40 ND1        40.9171   53.7784   82.4565 N.2         1 DVA      -0.3252
     41 CD2        39.1756   54.0322   83.7898 C.2         1 DVA       0.0291
     42 CE1        39.8592   54.2044   81.7438 C.2         1 DVA       0.0907
     43 NE2        38.8021   54.3674   82.5519 N.pl3       1 DVA      -0.2752
     44 N          45.0553   54.0829   85.0087 N.am        1 DVA      -0.2620
     45 CA         46.3452   53.5597   84.6612 C.3         1 DVA       0.1390
     46 C          47.3016   54.6441   84.8326 C.2         1 DVA       0.2058
     47 O          48.1150   54.6116   85.7515 O.2         1 DVA      -0.3942
     48 CB         46.6313   52.2862   85.5257 C.3         1 DVA       0.0163
     49 CG         46.0255   51.0619   84.9395 C.ar        1 DVA      -0.0493
     50 CD1        46.7668   50.2795   84.0185 C.ar        1 DVA      -0.0685
     51 CD2        44.6927   50.6842   85.2340 C.ar        1 DVA      -0.0685
     52 CE1        46.1779   49.1696   83.3830 C.ar        1 DVA      -0.0398
     53 CE2        44.1273   49.5449   84.6365 C.ar        1 DVA      -0.0398
     54 CZ         44.8592   48.7906   83.6985 C.ar        1 DVA       0.0805
     55 OH         44.2690   47.7523   83.0679 O.3         1 DVA      -0.3376
     56 N          47.2615   55.6807   83.9954 N.am        1 DVA      -0.2620
     57 CA         48.1245   56.8307   83.9966 C.3         1 DVA       0.1423
     58 C          49.0359   56.7351   82.8598 C.2         1 DVA       0.2051
     59 O          50.2420   56.7831   83.0665 O.2         1 DVA      -0.3943
     60 CB         47.2902   58.1442   83.9691 C.3         1 DVA       0.0406
     61 CG         46.4106   58.3279   85.1410 C.2         1 DVA       0.0393
     62 OD1        46.9141   58.2226   86.3938 O.co2       1 DVA      -0.5688
     63 OD2        45.2154   58.9449   84.9964 O.co2       1 DVA      -0.5688
     64 N          48.5753   56.6035   81.6183 N.am        1 DVA      -0.2671
     65 CA         49.3627   56.5248   80.4204 C.3         1 DVA       0.1173
     66 C          50.1863   55.2967   80.4159 C.2         1 DVA       0.0623
     67 O          51.5369   55.3707   80.3393 O.co2       1 DVA      -0.5665
     68 OXT        49.6317   54.0840   80.6190 O.co2       1 DVA      -0.5665
     69 CB         48.4678   56.5945   79.1601 C.3         1 DVA       0.0789
     70 OG         47.7536   55.3777   78.9220 O.3         1 DVA      -0.3910
     71 H1         35.2470   48.7639   93.5141 H           1 DVA       0.2015
     72 H2         34.9922   49.4602   95.0021 H           1 DVA       0.2015
     73 H3         35.1686   47.8095   94.8838 H           1 DVA       0.2015
     74 H4         37.1619   49.7853   94.1772 H           1 DVA       0.1101
     75 H5         38.7870   47.7754   94.3507 H           1 DVA       0.0376
     76 H6         36.2451   46.1281   93.8745 H           1 DVA       0.0236
     77 H7         37.2291   46.0817   95.3490 H           1 DVA       0.0236
     78 H8         37.9132   45.5453   93.8163 H           1 DVA       0.0236
     79 H9         36.8288   47.9195   92.0089 H           1 DVA       0.0236
     80 H10        38.4460   47.1882   91.9773 H           1 DVA       0.0236
     81 H11        38.2727   48.9255   92.2346 H           1 DVA       0.0236
     82 H12        39.6055   50.2375   95.2136 H           1 DVA       0.0802
     83 H13        39.5036   52.4361   97.3208 H           1 DVA       0.0313
     84 H14        40.9134   51.6623   96.5579 H           1 DVA       0.0313
     85 H15        40.0874   50.9774   99.0751 H           1 DVA       0.0287
     86 H16        40.7250   49.7497   97.9487 H           1 DVA       0.0287
     87 H17        38.6454   48.7893   98.3948 H           1 DVA       0.0524
     88 H18        37.8189   50.3502   98.6292 H           1 DVA       0.0524
     89 H19        39.9049   52.3223   94.1278 H           1 DVA       0.1881
     90 H20        39.0075   54.4530   93.4698 H           1 DVA       0.0763
     91 H21        37.3956   53.7403   93.4797 H           1 DVA       0.0763
     92 H22        40.4561   53.8444   91.8113 H           1 DVA       0.1884
     93 H23        39.3722   52.3423   89.5294 H           1 DVA       0.0823
     94 H24        41.0195   50.9585   90.5744 H           1 DVA       0.0606
     95 H25        42.1516   52.3006   90.7735 H           1 DVA       0.0606
     96 H26        42.2944   50.7000   88.9325 H           1 DVA       0.2097
     97 H27        42.3262   54.3350   89.8044 H           1 DVA       0.1883
     98 H28        43.1142   55.9941   88.6185 H           1 DVA       0.0801
     99 H29        41.8058   57.3820   89.9478 H           1 DVA       0.0337
    100 H30        40.2956   56.9067   89.2139 H           1 DVA       0.0337
    101 H31        42.0648   58.1584   87.1919 H           1 DVA       0.0504
    102 H32        41.9566   59.2089   88.5969 H           1 DVA       0.0504
    103 H33        38.4758   59.8076   88.1524 H           1 DVA       0.1814
    104 H34        39.6161   59.6958   89.3689 H           1 DVA       0.1814
    105 H35        43.4031   54.3224   86.9625 H           1 DVA       0.1885
    106 H36        42.4783   55.1527   84.4093 H           1 DVA       0.0817
    107 H37        40.7789   53.2819   85.7682 H           1 DVA       0.0420
    108 H38        41.7151   52.2456   84.7106 H           1 DVA       0.0420
    109 H39        38.5900   54.0707   84.6232 H           1 DVA       0.0729
    110 H40        39.8682   54.3852   80.7403 H           1 DVA       0.1199
    111 H41        37.9261   54.6859   82.2913 H           1 DVA       0.2361
    112 H42        45.0560   54.7755   85.6959 H           1 DVA       0.1885
    113 H43        46.3784   53.2643   83.6043 H           1 DVA       0.0821
    114 H44        46.2694   52.4327   86.5500 H           1 DVA       0.0453
    115 H45        47.7096   52.1367   85.6046 H           1 DVA       0.0453
    116 H46        47.7139   50.5473   83.7557 H           1 DVA       0.0530
    117 H47        44.1437   51.2216   85.9077 H           1 DVA       0.0530
    118 H48        46.7183   48.6377   82.6956 H           1 DVA       0.0525
    119 H49        43.1587   49.2827   84.8526 H           1 DVA       0.0525
    120 H50        44.5927   47.7738   82.1452 H           1 DVA       0.2458
    121 H51        46.5917   55.6416   83.2889 H           1 DVA       0.1884
    122 H52        48.7194   56.8577   84.9170 H           1 DVA       0.0819
    123 H53        46.6753   58.1793   83.0644 H           1 DVA       0.0478
    124 H54        47.9781   58.9944   83.9376 H           1 DVA       0.0478
    125 H55        47.6057   56.5893   81.5075 H           1 DVA       0.1876
    126 H56        50.0199   57.3971   80.3814 H           1 DVA       0.0749
    127 H57        49.0808   56.8026   78.2776 H           1 DVA       0.0599
    128 H58        47.7499   57.4143   79.2672 H           1 DVA       0.0599
    129 H59        47.1168   55.2954   79.6619 H           1 DVA       0.2096
@<TRIPOS>BOND
     1     1     2   1
     2     2     3   1
     3     2     6   1
     4     3     4   1
     5     3     5   1
     6     6     7   2
     7     6     8  am
     8     8     9   1
     9     8    12   1
    10     9    10   1
    11     9    13   1
    12    10    11   1
    13    11    12   1
    14    13    14   2
    15    13    15  am
    16    15    16   1
    17    16    17   1
    18    17    18   2
    19    17    19  am
    20    19    20   1
    21    20    21   1
    22    20    23   1
    23    21    22   2
    24    21    25  am
    25    23    24   1
    26    25    26   1
    27    26    27   1
    28    26    29   1
    29    27    28   2
    30    27    34  am
    31    29    30   1
    32    30    31   1
    33    31    32   2
    34    31    33  am
    35    34    35   1
    36    35    36   1
    37    35    38   1
    38    36    37   2
    39    36    44  am
    40    38    39   1
    41    39    40   1
    42    39    41   2
    43    40    42   2
    44    41    43   1
    45    42    43   1
    46    44    45   1
    47    45    46   1
    48    45    48   1
    49    46    47   2
    50    46    56  am
    51    48    49   1
    52    49    50  ar
    53    49    51  ar
    54    50    52  ar
    55    51    53  ar
    56    52    54  ar
    57    53    54  ar
    58    54    55   1
    59    56    57   1
    60    57    58   1
    61    57    60   1
    62    58    59   2
    63    58    64  am
    64    60    61   1
    65    61    62  ar
    66    61    63  ar
    67    64    65   1
    68    65    66   1
    69    65    69   1
    70    66    67  ar
    71    66    68  ar
    72    69    70   1
    73     1    71   1
    74     1    72   1
    75     1    73   1
    76     2    74   1
    77     3    75   1
    78     4    76   1
    79     4    77   1
    80     4    78   1
    81     5    79   1
    82     5    80   1
    83     5    81   1
    84     9    82   1
    85    10    83   1
    86    10    84   1
    87    11    85   1
    88    11    86   1
    89    12    87   1
    90    12    88   1
    91    15    89   1
    92    16    90   1
    93    16    91   1
    94    19    92   1
    95    20    93   1
    96    23    94   1
    97    23    95   1
    98    24    96   1
    99    25    97   1
   100    26    98   1
   101    29    99   1
   102    29   100   1
   103    30   101   1
   104    30   102   1
   105    33   103   1
   106    33   104   1
   107    34   105   1
   108    35   106   1
   109    38   107   1
   110    38   108   1
   111    41   109   1
   112    42   110   1
   113    43   111   1
   114    44   112   1
   115    45   113   1
   116    48   114   1
   117    48   115   1
   118    50   116   1
   119    51   117   1
   120    52   118   1
   121    53   119   1
   122    55   120   1
   123    56   121   1
   124    57   122   1
   125    60   123   1
   126    60   124   1
   127    64   125   1
   128    65   126   1
   129    69   127   1
   130    69   128   1
   131    70   129   1
@<TRIPOS>SUBSTRUCTURE
     1  DVA      2

