@<TRIPOS>MOLECULE
1zea_ligand_077
   129   131
SMALL
GAST_HUCK
****
This file was generated by PARSER (from files_GN.cpp)

@<TRIPOS>ATOM
      1 N          43.6147   46.5613   93.6055 N.4         1 DVA       0.2381
      2 CA         44.7808   46.1097   92.8252 C.3         1 DVA       0.0675
      3 CB         44.6075   44.6370   92.2903 C.3         1 DVA       0.0139
      4 CG1        43.8934   43.6680   93.2801 C.3         1 DVA      -0.0553
      5 CG2        43.8829   44.5992   90.9150 C.3         1 DVA      -0.0553
      6 C          45.9974   46.2955   93.6204 C.2         1 DVA       0.2295
      7 O          46.1004   45.5586   94.5989 O.2         1 DVA      -0.3905
      8 N          46.9927   47.1753   93.3761 N.am        1 DVA      -0.2471
      9 CA         47.0195   48.1943   92.3429 C.3         1 DVA       0.1339
     10 CB         48.5222   48.5694   92.2441 C.3         1 DVA      -0.0104
     11 CG         49.0545   48.3509   93.6631 C.3         1 DVA      -0.0281
     12 CD         48.1948   47.1836   94.1709 C.3         1 DVA       0.0371
     13 C          46.1799   49.3688   92.6337 C.2         1 DVA       0.2039
     14 O          45.5765   49.4324   93.6942 O.2         1 DVA      -0.3944
     15 N          46.1523   50.3849   91.7725 N.am        1 DVA      -0.2664
     16 CA         45.5823   51.6897   91.9917 C.3         1 DVA       0.1201
     17 C          44.6599   52.0941   90.9524 C.2         1 DVA       0.2008
     18 O          45.0686   52.1561   89.7978 O.2         1 DVA      -0.3947
     19 N          43.4216   52.4792   91.2654 N.am        1 DVA      -0.2618
     20 CA         42.3959   53.0042   90.4089 C.3         1 DVA       0.1539
     21 C          42.7510   54.3136   89.8549 C.2         1 DVA       0.2062
     22 O          43.1408   55.1665   90.6444 O.2         1 DVA      -0.3943
     23 CB         41.9059   51.9343   89.3920 C.3         1 DVA       0.0843
     24 OG         41.6467   50.6894   90.0393 O.3         1 DVA      -0.3903
     25 N          42.6514   54.6066   88.5601 N.am        1 DVA      -0.2635
     26 CA         43.0333   55.8396   87.9158 C.3         1 DVA       0.1330
     27 C          43.4011   55.6258   86.5155 C.2         1 DVA       0.2041
     28 O          44.3401   56.2751   86.0630 O.2         1 DVA      -0.3944
     29 CB         41.9824   56.9896   88.0652 C.3         1 DVA       0.0045
     30 CG         40.5612   56.6820   87.5124 C.3         1 DVA       0.0412
     31 CD         39.7369   57.8746   87.3766 C.2         1 DVA       0.1737
     32 OE1        39.7576   58.5221   86.3395 O.2         1 DVA      -0.3973
     33 NE2        38.9230   58.2691   88.3295 N.am        1 DVA      -0.3009
     34 N          42.7236   54.7992   85.7253 N.am        1 DVA      -0.2625
     35 CA         42.9854   54.4933   84.3451 C.3         1 DVA       0.1369
     36 C          44.0263   53.4755   84.2901 C.2         1 DVA       0.2055
     37 O          43.7483   52.2957   84.0716 O.2         1 DVA      -0.3942
     38 CB         41.6353   54.1317   83.6504 C.3         1 DVA       0.0145
     39 CG         41.6554   53.9806   82.1739 C.2         1 DVA      -0.0027
     40 ND1        40.5435   53.7632   81.4514 N.2         1 DVA      -0.3252
     41 CD2        42.7212   54.0349   81.2806 C.2         1 DVA       0.0291
     42 CE1        40.9034   53.6797   80.1598 C.2         1 DVA       0.0907
     43 NE2        42.2311   53.8427   80.0512 N.pl3       1 DVA      -0.2752
     44 N          45.2638   53.8178   84.6081 N.am        1 DVA      -0.2620
     45 CA         46.4186   52.9745   84.7855 C.3         1 DVA       0.1390
     46 C          47.5829   53.5456   84.1009 C.2         1 DVA       0.2058
     47 O          47.5800   54.7321   83.7461 O.2         1 DVA      -0.3942
     48 CB         46.6201   52.8172   86.3335 C.3         1 DVA       0.0163
     49 CG         47.3360   51.5905   86.7817 C.ar        1 DVA      -0.0493
     50 CD1        46.6325   50.4785   87.3074 C.ar        1 DVA      -0.0685
     51 CD2        48.7504   51.5287   86.7470 C.ar        1 DVA      -0.0685
     52 CE1        47.3200   49.3473   87.7793 C.ar        1 DVA      -0.0398
     53 CE2        49.4370   50.3831   87.1818 C.ar        1 DVA      -0.0398
     54 CZ         48.7300   49.2826   87.7015 C.ar        1 DVA       0.0805
     55 OH         49.4238   48.2016   88.1450 O.3         1 DVA      -0.3376
     56 N          48.6844   52.8223   83.9429 N.am        1 DVA      -0.2620
     57 CA         49.9439   53.1978   83.3631 C.3         1 DVA       0.1423
     58 C          49.8737   53.1299   81.9008 C.2         1 DVA       0.2051
     59 O          49.7238   54.1508   81.2381 O.2         1 DVA      -0.3943
     60 CB         50.5668   54.5293   83.8964 C.3         1 DVA       0.0406
     61 CG         50.6865   54.5755   85.3630 C.2         1 DVA       0.0393
     62 OD1        50.0258   55.5131   86.0798 O.co2       1 DVA      -0.5688
     63 OD2        51.5456   53.7502   86.0056 O.co2       1 DVA      -0.5688
     64 N          50.0751   51.9554   81.3128 N.am        1 DVA      -0.2671
     65 CA         50.3352   51.6836   79.9229 C.3         1 DVA       0.1173
     66 C          49.2425   52.0730   79.0069 C.2         1 DVA       0.0623
     67 O          48.1129   52.6807   79.4342 O.co2       1 DVA      -0.5665
     68 OXT        49.3223   51.7546   77.6922 O.co2       1 DVA      -0.5665
     69 CB         51.6973   52.2822   79.4765 C.3         1 DVA       0.0789
     70 OG         52.7562   51.8477   80.3285 O.3         1 DVA      -0.3910
     71 H1         42.7701   46.4867   93.0342 H           1 DVA       0.2015
     72 H2         43.7501   47.5351   93.8898 H           1 DVA       0.2015
     73 H3         43.5090   45.9802   94.4418 H           1 DVA       0.2015
     74 H4         44.8118   46.7726   91.9635 H           1 DVA       0.1101
     75 H5         45.6065   44.2241   92.1125 H           1 DVA       0.0376
     76 H6         43.9335   42.6454   92.9022 H           1 DVA       0.0236
     77 H7         42.8456   43.9447   93.4051 H           1 DVA       0.0236
     78 H8         44.3716   43.6772   94.2583 H           1 DVA       0.0236
     79 H9         44.4681   45.1393   90.1691 H           1 DVA       0.0236
     80 H10        42.8927   45.0546   90.9846 H           1 DVA       0.0236
     81 H11        43.7699   43.5692   90.5654 H           1 DVA       0.0236
     82 H12        46.7250   47.7754   91.3788 H           1 DVA       0.0802
     83 H13        48.7070   49.5923   91.9021 H           1 DVA       0.0313
     84 H14        49.0309   47.8862   91.5566 H           1 DVA       0.0313
     85 H15        48.8798   49.2426   94.2725 H           1 DVA       0.0287
     86 H16        50.1209   48.1129   93.6709 H           1 DVA       0.0287
     87 H17        48.7326   46.2393   94.0387 H           1 DVA       0.0524
     88 H18        47.9743   47.3261   95.2345 H           1 DVA       0.0524
     89 H19        46.6681   50.2790   90.9606 H           1 DVA       0.1881
     90 H20        46.4127   52.4015   92.0076 H           1 DVA       0.0763
     91 H21        45.0976   51.7560   92.9725 H           1 DVA       0.0763
     92 H22        43.1792   52.3917   92.2026 H           1 DVA       0.1884
     93 H23        41.5366   53.1866   91.0634 H           1 DVA       0.0823
     94 H24        42.6495   51.7665   88.6094 H           1 DVA       0.0606
     95 H25        40.9784   52.2786   88.9190 H           1 DVA       0.0606
     96 H26        40.9842   50.8909   90.7356 H           1 DVA       0.2097
     97 H27        42.3488   53.8918   87.9820 H           1 DVA       0.1883
     98 H28        43.9375   56.1838   88.4294 H           1 DVA       0.0801
     99 H29        42.3775   57.8831   87.5665 H           1 DVA       0.0337
    100 H30        41.8857   57.2380   89.1267 H           1 DVA       0.0337
    101 H31        40.0695   55.9649   88.1795 H           1 DVA       0.0504
    102 H32        40.6435   56.2054   86.5328 H           1 DVA       0.0504
    103 H33        38.3539   59.0435   88.1879 H           1 DVA       0.1814
    104 H34        38.8693   57.7789   89.1648 H           1 DVA       0.1814
    105 H35        41.9772   54.3269   86.1182 H           1 DVA       0.1885
    106 H36        43.3647   55.3874   83.8346 H           1 DVA       0.0817
    107 H37        40.9087   54.9143   83.8774 H           1 DVA       0.0420
    108 H38        41.2536   53.2048   84.0825 H           1 DVA       0.0420
    109 H39        43.7048   54.1915   81.5021 H           1 DVA       0.0729
    110 H40        40.2692   53.5157   79.3761 H           1 DVA       0.1199
    111 H41        42.7411   53.8301   79.2297 H           1 DVA       0.2361
    112 H42        45.4076   54.7580   84.8247 H           1 DVA       0.1885
    113 H43        46.2329   51.9916   84.3431 H           1 DVA       0.0821
    114 H44        45.6366   52.8102   86.8127 H           1 DVA       0.0453
    115 H45        47.1251   53.7065   86.7324 H           1 DVA       0.0453
    116 H46        45.6098   50.4940   87.3723 H           1 DVA       0.0530
    117 H47        49.2909   52.3236   86.4033 H           1 DVA       0.0530
    118 H48        46.7943   48.5681   88.1876 H           1 DVA       0.0525
    119 H49        50.4599   50.3602   87.1386 H           1 DVA       0.0525
    120 H50        48.7652   47.4868   88.2667 H           1 DVA       0.2458
    121 H51        48.6336   51.8999   84.2551 H           1 DVA       0.1884
    122 H52        50.6475   52.4179   83.6692 H           1 DVA       0.0819
    123 H53        49.9790   55.3886   83.5566 H           1 DVA       0.0478
    124 H54        51.5728   54.6432   83.4827 H           1 DVA       0.0478
    125 H55        50.1475   51.1895   81.9035 H           1 DVA       0.1876
    126 H56        50.4236   50.5996   79.8463 H           1 DVA       0.0749
    127 H57        51.6651   53.3742   79.4966 H           1 DVA       0.0599
    128 H58        51.9384   51.9668   78.4579 H           1 DVA       0.0599
    129 H59        52.8041   50.8759   80.2000 H           1 DVA       0.2096
@<TRIPOS>BOND
     1     1     2   1
     2     2     3   1
     3     2     6   1
     4     3     4   1
     5     3     5   1
     6     6     7   2
     7     6     8  am
     8     8     9   1
     9     8    12   1
    10     9    10   1
    11     9    13   1
    12    10    11   1
    13    11    12   1
    14    13    14   2
    15    13    15  am
    16    15    16   1
    17    16    17   1
    18    17    18   2
    19    17    19  am
    20    19    20   1
    21    20    21   1
    22    20    23   1
    23    21    22   2
    24    21    25  am
    25    23    24   1
    26    25    26   1
    27    26    27   1
    28    26    29   1
    29    27    28   2
    30    27    34  am
    31    29    30   1
    32    30    31   1
    33    31    32   2
    34    31    33  am
    35    34    35   1
    36    35    36   1
    37    35    38   1
    38    36    37   2
    39    36    44  am
    40    38    39   1
    41    39    40   1
    42    39    41   2
    43    40    42   2
    44    41    43   1
    45    42    43   1
    46    44    45   1
    47    45    46   1
    48    45    48   1
    49    46    47   2
    50    46    56  am
    51    48    49   1
    52    49    50  ar
    53    49    51  ar
    54    50    52  ar
    55    51    53  ar
    56    52    54  ar
    57    53    54  ar
    58    54    55   1
    59    56    57   1
    60    57    58   1
    61    57    60   1
    62    58    59   2
    63    58    64  am
    64    60    61   1
    65    61    62  ar
    66    61    63  ar
    67    64    65   1
    68    65    66   1
    69    65    69   1
    70    66    67  ar
    71    66    68  ar
    72    69    70   1
    73     1    71   1
    74     1    72   1
    75     1    73   1
    76     2    74   1
    77     3    75   1
    78     4    76   1
    79     4    77   1
    80     4    78   1
    81     5    79   1
    82     5    80   1
    83     5    81   1
    84     9    82   1
    85    10    83   1
    86    10    84   1
    87    11    85   1
    88    11    86   1
    89    12    87   1
    90    12    88   1
    91    15    89   1
    92    16    90   1
    93    16    91   1
    94    19    92   1
    95    20    93   1
    96    23    94   1
    97    23    95   1
    98    24    96   1
    99    25    97   1
   100    26    98   1
   101    29    99   1
   102    29   100   1
   103    30   101   1
   104    30   102   1
   105    33   103   1
   106    33   104   1
   107    34   105   1
   108    35   106   1
   109    38   107   1
   110    38   108   1
   111    41   109   1
   112    42   110   1
   113    43   111   1
   114    44   112   1
   115    45   113   1
   116    48   114   1
   117    48   115   1
   118    50   116   1
   119    51   117   1
   120    52   118   1
   121    53   119   1
   122    55   120   1
   123    56   121   1
   124    57   122   1
   125    60   123   1
   126    60   124   1
   127    64   125   1
   128    65   126   1
   129    69   127   1
   130    69   128   1
   131    70   129   1
@<TRIPOS>SUBSTRUCTURE
     1  DVA      2

