@<TRIPOS>MOLECULE
1zea_ligand_090
   129   131
SMALL
GAST_HUCK
****
This file was generated by PARSER (from files_GN.cpp)

@<TRIPOS>ATOM
      1 N          56.4777   47.9586   86.8935 N.4         1 DVA       0.2381
      2 CA         56.8148   49.1940   86.1579 C.3         1 DVA       0.0675
      3 CB         58.0614   48.9367   85.2353 C.3         1 DVA       0.0139
      4 CG1        58.1727   49.9626   84.0736 C.3         1 DVA      -0.0553
      5 CG2        59.4200   48.8315   85.9868 C.3         1 DVA      -0.0553
      6 C          56.9489   50.3099   87.1070 C.2         1 DVA       0.2295
      7 O          57.6502   50.0820   88.0890 O.2         1 DVA      -0.3905
      8 N          56.3889   51.5299   86.9951 N.am        1 DVA      -0.2471
      9 CA         55.6248   52.0176   85.8685 C.3         1 DVA       0.1339
     10 CB         55.7266   53.5579   85.9976 C.3         1 DVA      -0.0104
     11 CG         55.8281   53.7925   87.5076 C.3         1 DVA      -0.0281
     12 CD         56.6026   52.5543   87.9861 C.3         1 DVA       0.0371
     13 C          54.2384   51.5584   85.8052 C.2         1 DVA       0.2039
     14 O          53.7700   50.8736   86.7069 O.2         1 DVA      -0.3944
     15 N          53.5138   51.8990   84.7447 N.am        1 DVA      -0.2664
     16 CA         52.1526   51.5534   84.4601 C.3         1 DVA       0.1201
     17 C          51.2617   52.6887   84.3047 C.2         1 DVA       0.2008
     18 O          51.6822   53.8335   84.4076 O.2         1 DVA      -0.3947
     19 N          49.9875   52.4408   84.0273 N.am        1 DVA      -0.2618
     20 CA         48.9260   53.3901   83.8263 C.3         1 DVA       0.1539
     21 C          47.7035   52.6479   83.5259 C.2         1 DVA       0.2062
     22 O          47.1552   52.8074   82.4428 O.2         1 DVA      -0.3943
     23 CB         48.7093   54.3651   85.0256 C.3         1 DVA       0.0843
     24 OG         48.7250   53.6960   86.2835 O.3         1 DVA      -0.3903
     25 N          47.2003   51.8270   84.4428 N.am        1 DVA      -0.2635
     26 CA         45.9905   51.0565   84.4100 C.3         1 DVA       0.1330
     27 C          44.8090   51.9153   84.3306 C.2         1 DVA       0.2041
     28 O          44.3712   52.2162   83.2292 O.2         1 DVA      -0.3944
     29 CB         46.0446   49.8827   83.3773 C.3         1 DVA       0.0045
     30 CG         44.7999   48.9368   83.2376 C.3         1 DVA       0.0412
     31 CD         43.7365   49.0408   84.2237 C.2         1 DVA       0.1737
     32 OE1        42.6435   49.4906   83.9028 O.2         1 DVA      -0.3973
     33 NE2        43.8906   48.6750   85.4749 N.am        1 DVA      -0.3009
     34 N          44.1862   52.2655   85.4515 N.am        1 DVA      -0.2625
     35 CA         42.8578   52.8079   85.6639 C.3         1 DVA       0.1369
     36 C          42.6336   53.0635   87.1010 C.2         1 DVA       0.2055
     37 O          43.5589   53.0324   87.9054 O.2         1 DVA      -0.3942
     38 CB         42.5060   54.0833   84.8127 C.3         1 DVA       0.0145
     39 CG         42.0316   53.8306   83.4326 C.2         1 DVA      -0.0027
     40 ND1        42.5364   54.3816   82.3132 N.2         1 DVA      -0.3252
     41 CD2        40.9602   53.0238   83.0500 C.2         1 DVA       0.0291
     42 CE1        41.8220   53.9136   81.2730 C.2         1 DVA       0.0907
     43 NE2        40.8709   53.0819   81.7167 N.pl3       1 DVA      -0.2752
     44 N          41.4001   53.3202   87.5359 N.am        1 DVA      -0.2620
     45 CA         40.9327   53.6140   88.8743 C.3         1 DVA       0.1390
     46 C          40.8970   52.4590   89.7737 C.2         1 DVA       0.2058
     47 O          41.5296   51.4428   89.5166 O.2         1 DVA      -0.3942
     48 CB         41.6106   54.8657   89.5388 C.3         1 DVA       0.0163
     49 CG         41.0662   56.1639   89.0484 C.ar        1 DVA      -0.0493
     50 CD1        41.4098   56.6558   87.7695 C.ar        1 DVA      -0.0685
     51 CD2        40.1734   56.9245   89.8457 C.ar        1 DVA      -0.0685
     52 CE1        40.8562   57.8554   87.2839 C.ar        1 DVA      -0.0398
     53 CE2        39.6187   58.1218   89.3595 C.ar        1 DVA      -0.0398
     54 CZ         39.9547   58.5879   88.0749 C.ar        1 DVA       0.0805
     55 OH         39.4218   59.7407   87.6015 O.3         1 DVA      -0.3376
     56 N          40.1320   52.5453   90.8617 N.am        1 DVA      -0.2620
     57 CA         39.8450   51.5228   91.8309 C.3         1 DVA       0.1423
     58 C          40.5135   51.8710   93.0807 C.2         1 DVA       0.2051
     59 O          39.8701   52.0791   94.1018 O.2         1 DVA      -0.3943
     60 CB         38.2938   51.3611   91.9030 C.3         1 DVA       0.0406
     61 CG         37.8793   50.1627   92.6599 C.2         1 DVA       0.0393
     62 OD1        37.4659   50.2864   93.9398 O.co2       1 DVA      -0.5688
     63 OD2        37.5819   49.0163   92.0076 O.co2       1 DVA      -0.5688
     64 N          41.8386   51.9497   93.0901 N.am        1 DVA      -0.2671
     65 CA         42.6850   52.2042   94.2172 C.3         1 DVA       0.1173
     66 C          43.8047   51.2409   94.1691 C.2         1 DVA       0.0623
     67 O          44.7183   51.2944   93.1723 O.co2       1 DVA      -0.5665
     68 OXT        43.8160   50.1605   94.9832 O.co2       1 DVA      -0.5665
     69 CB         43.1918   53.6672   94.1867 C.3         1 DVA       0.0789
     70 OG         42.1105   54.5832   94.3205 O.3         1 DVA      -0.3910
     71 H1         56.3022   47.2037   86.2277 H           1 DVA       0.2015
     72 H2         55.6402   48.1088   87.4604 H           1 DVA       0.2015
     73 H3         57.2554   47.6967   87.5026 H           1 DVA       0.2015
     74 H4         55.9528   49.3552   85.5080 H           1 DVA       0.1101
     75 H5         57.9038   47.9670   84.7512 H           1 DVA       0.0376
     76 H6         58.9661   49.6689   83.3811 H           1 DVA       0.0236
     77 H7         58.3963   50.9609   84.4568 H           1 DVA       0.0236
     78 H8         57.2389   50.0021   83.5088 H           1 DVA       0.0236
     79 H9         59.3550   48.1056   86.7989 H           1 DVA       0.0236
     80 H10        59.7107   49.7987   86.4032 H           1 DVA       0.0236
     81 H11        60.2067   48.5051   85.3035 H           1 DVA       0.0236
     82 H12        56.1197   51.7327   84.9388 H           1 DVA       0.0802
     83 H13        54.8822   54.0982   85.5614 H           1 DVA       0.0313
     84 H14        56.6455   53.9079   85.5167 H           1 DVA       0.0313
     85 H15        54.8283   53.8185   87.9536 H           1 DVA       0.0287
     86 H16        56.3521   54.7238   87.7408 H           1 DVA       0.0287
     87 H17        57.6690   52.7926   88.0524 H           1 DVA       0.0524
     88 H18        56.2418   52.2429   88.9718 H           1 DVA       0.0524
     89 H19        53.9613   52.4392   84.0738 H           1 DVA       0.1881
     90 H20        51.7417   50.8958   85.2306 H           1 DVA       0.0763
     91 H21        52.1599   51.0073   83.5158 H           1 DVA       0.0763
     92 H22        49.7567   51.5040   83.9089 H           1 DVA       0.1884
     93 H23        49.1950   54.0051   82.9584 H           1 DVA       0.0823
     94 H24        47.7539   54.8894   84.9261 H           1 DVA       0.0606
     95 H25        49.4974   55.1195   85.0390 H           1 DVA       0.0606
     96 H26        48.6261   54.4071   86.9521 H           1 DVA       0.2097
     97 H27        47.7179   51.7498   85.2599 H           1 DVA       0.1883
     98 H28        45.9754   50.5598   85.3861 H           1 DVA       0.0801
     99 H29        46.9106   49.2665   83.6369 H           1 DVA       0.0337
    100 H30        46.2632   50.2977   82.3887 H           1 DVA       0.0337
    101 H31        45.1401   47.8975   83.2360 H           1 DVA       0.0504
    102 H32        44.3650   49.1094   82.2483 H           1 DVA       0.0504
    103 H33        43.1539   48.7821   86.1015 H           1 DVA       0.1814
    104 H34        44.7313   48.2959   85.7790 H           1 DVA       0.1814
    105 H35        44.6474   52.0011   86.2639 H           1 DVA       0.1885
    106 H36        42.1620   52.0025   85.3961 H           1 DVA       0.0817
    107 H37        43.3691   54.7499   84.7838 H           1 DVA       0.0420
    108 H38        41.6925   54.6443   85.2796 H           1 DVA       0.0420
    109 H39        40.3532   52.4777   83.6652 H           1 DVA       0.0729
    110 H40        41.9792   54.1555   80.2945 H           1 DVA       0.1199
    111 H41        40.2248   52.6067   81.1669 H           1 DVA       0.2361
    112 H42        40.7048   53.2872   86.8578 H           1 DVA       0.1885
    113 H43        39.8757   53.8610   88.7162 H           1 DVA       0.0821
    114 H44        42.6888   54.8401   89.3734 H           1 DVA       0.0453
    115 H45        41.4827   54.8199   90.6258 H           1 DVA       0.0453
    116 H46        42.0704   56.1432   87.1837 H           1 DVA       0.0530
    117 H47        39.9146   56.6049   90.7804 H           1 DVA       0.0530
    118 H48        41.1062   58.1899   86.3498 H           1 DVA       0.0525
    119 H49        38.9706   58.6507   89.9445 H           1 DVA       0.0525
    120 H50        38.5321   59.8166   88.0061 H           1 DVA       0.2458
    121 H51        39.6988   53.4042   91.0100 H           1 DVA       0.1884
    122 H52        40.2570   50.5652   91.4995 H           1 DVA       0.0819
    123 H53        37.8892   51.2808   90.8903 H           1 DVA       0.0478
    124 H54        37.8427   52.2522   92.3502 H           1 DVA       0.0478
    125 H55        42.2829   51.8344   92.2350 H           1 DVA       0.1876
    126 H56        42.1489   52.0502   95.1597 H           1 DVA       0.0749
    127 H57        43.6994   53.8751   93.2430 H           1 DVA       0.0599
    128 H58        43.8929   53.8419   95.0046 H           1 DVA       0.0599
    129 H59        41.7052   54.3809   95.1906 H           1 DVA       0.2096
@<TRIPOS>BOND
     1     1     2   1
     2     2     3   1
     3     2     6   1
     4     3     4   1
     5     3     5   1
     6     6     7   2
     7     6     8  am
     8     8     9   1
     9     8    12   1
    10     9    10   1
    11     9    13   1
    12    10    11   1
    13    11    12   1
    14    13    14   2
    15    13    15  am
    16    15    16   1
    17    16    17   1
    18    17    18   2
    19    17    19  am
    20    19    20   1
    21    20    21   1
    22    20    23   1
    23    21    22   2
    24    21    25  am
    25    23    24   1
    26    25    26   1
    27    26    27   1
    28    26    29   1
    29    27    28   2
    30    27    34  am
    31    29    30   1
    32    30    31   1
    33    31    32   2
    34    31    33  am
    35    34    35   1
    36    35    36   1
    37    35    38   1
    38    36    37   2
    39    36    44  am
    40    38    39   1
    41    39    40   1
    42    39    41   2
    43    40    42   2
    44    41    43   1
    45    42    43   1
    46    44    45   1
    47    45    46   1
    48    45    48   1
    49    46    47   2
    50    46    56  am
    51    48    49   1
    52    49    50  ar
    53    49    51  ar
    54    50    52  ar
    55    51    53  ar
    56    52    54  ar
    57    53    54  ar
    58    54    55   1
    59    56    57   1
    60    57    58   1
    61    57    60   1
    62    58    59   2
    63    58    64  am
    64    60    61   1
    65    61    62  ar
    66    61    63  ar
    67    64    65   1
    68    65    66   1
    69    65    69   1
    70    66    67  ar
    71    66    68  ar
    72    69    70   1
    73     1    71   1
    74     1    72   1
    75     1    73   1
    76     2    74   1
    77     3    75   1
    78     4    76   1
    79     4    77   1
    80     4    78   1
    81     5    79   1
    82     5    80   1
    83     5    81   1
    84     9    82   1
    85    10    83   1
    86    10    84   1
    87    11    85   1
    88    11    86   1
    89    12    87   1
    90    12    88   1
    91    15    89   1
    92    16    90   1
    93    16    91   1
    94    19    92   1
    95    20    93   1
    96    23    94   1
    97    23    95   1
    98    24    96   1
    99    25    97   1
   100    26    98   1
   101    29    99   1
   102    29   100   1
   103    30   101   1
   104    30   102   1
   105    33   103   1
   106    33   104   1
   107    34   105   1
   108    35   106   1
   109    38   107   1
   110    38   108   1
   111    41   109   1
   112    42   110   1
   113    43   111   1
   114    44   112   1
   115    45   113   1
   116    48   114   1
   117    48   115   1
   118    50   116   1
   119    51   117   1
   120    52   118   1
   121    53   119   1
   122    55   120   1
   123    56   121   1
   124    57   122   1
   125    60   123   1
   126    60   124   1
   127    64   125   1
   128    65   126   1
   129    69   127   1
   130    69   128   1
   131    70   129   1
@<TRIPOS>SUBSTRUCTURE
     1  DVA      2

