@<TRIPOS>MOLECULE
1zea_ligand_066
   129   131
SMALL
GAST_HUCK
****
This file was generated by PARSER (from files_GN.cpp)

@<TRIPOS>ATOM
      1 N          40.1609   52.0535   94.3906 N.4         1 DVA       0.2381
      2 CA         38.7458   51.7136   94.6074 C.3         1 DVA       0.0675
      3 CB         37.9506   51.6720   93.2501 C.3         1 DVA       0.0139
      4 CG1        38.0381   52.9985   92.4468 C.3         1 DVA      -0.0553
      5 CG2        38.3455   50.4545   92.3632 C.3         1 DVA      -0.0553
      6 C          38.0662   52.4739   95.6728 C.2         1 DVA       0.2295
      7 O          37.0031   51.9533   96.0039 O.2         1 DVA      -0.3905
      8 N          38.4382   53.5894   96.3427 N.am        1 DVA      -0.2471
      9 CA         39.5745   54.4529   96.0934 C.3         1 DVA       0.1339
     10 CB         39.7157   55.3010   97.3820 C.3         1 DVA      -0.0104
     11 CG         38.2897   55.3948   97.9286 C.3         1 DVA      -0.0281
     12 CD         37.6553   54.0782   97.4556 C.3         1 DVA       0.0371
     13 C          39.4029   55.3008   94.9134 C.2         1 DVA       0.2039
     14 O          38.3163   55.8399   94.7260 O.2         1 DVA      -0.3944
     15 N          40.4363   55.5892   94.1325 N.am        1 DVA      -0.2664
     16 CA         40.3782   56.4216   92.9652 C.3         1 DVA       0.1201
     17 C          41.6934   56.7872   92.4777 C.2         1 DVA       0.2008
     18 O          42.5917   55.9546   92.5577 O.2         1 DVA      -0.3947
     19 N          41.8786   57.9455   91.8529 N.am        1 DVA      -0.2618
     20 CA         43.0939   58.4223   91.2463 C.3         1 DVA       0.1539
     21 C          42.9264   58.5469   89.7997 C.2         1 DVA       0.2062
     22 O          43.2803   59.5631   89.2080 O.2         1 DVA      -0.3943
     23 CB         43.5269   59.7230   91.9811 C.3         1 DVA       0.0843
     24 OG         42.4468   60.6498   92.0889 O.3         1 DVA      -0.3903
     25 N          42.4672   57.5009   89.1245 N.am        1 DVA      -0.2635
     26 CA         42.4055   57.3238   87.7003 C.3         1 DVA       0.1330
     27 C          43.2634   56.1750   87.4225 C.2         1 DVA       0.2041
     28 O          44.4408   56.2706   87.7461 O.2         1 DVA      -0.3944
     29 CB         40.9147   57.2070   87.2420 C.3         1 DVA       0.0045
     30 CG         39.9917   58.3891   87.6618 C.3         1 DVA       0.0412
     31 CD         39.9101   58.6121   89.0917 C.2         1 DVA       0.1737
     32 OE1        40.1960   59.6946   89.5793 O.2         1 DVA      -0.3973
     33 NE2        39.5219   57.6590   89.9075 N.am        1 DVA      -0.3009
     34 N          42.7978   55.0467   86.8895 N.am        1 DVA      -0.2625
     35 CA         43.4960   53.8133   86.6501 C.3         1 DVA       0.1369
     36 C          44.5131   53.9610   85.6121 C.2         1 DVA       0.2055
     37 O          45.5448   54.5801   85.8415 O.2         1 DVA      -0.3942
     38 CB         44.0501   53.1475   87.9423 C.3         1 DVA       0.0145
     39 CG         42.9808   52.5744   88.7841 C.2         1 DVA      -0.0027
     40 ND1        41.9705   53.2594   89.3473 N.2         1 DVA      -0.3252
     41 CD2        42.8120   51.2303   89.1031 C.2         1 DVA       0.0291
     42 CE1        41.2024   52.3686   89.9972 C.2         1 DVA       0.0907
     43 NE2        41.7096   51.1368   89.8514 N.pl3       1 DVA      -0.2752
     44 N          44.2931   53.4256   84.4219 N.am        1 DVA      -0.2620
     45 CA         45.0878   53.5421   83.2341 C.3         1 DVA       0.1390
     46 C          45.5482   52.2151   82.8314 C.2         1 DVA       0.2058
     47 O          45.7074   51.9760   81.6407 O.2         1 DVA      -0.3942
     48 CB         44.2998   54.3937   82.1740 C.3         1 DVA       0.0163
     49 CG         42.8111   54.2382   82.1296 C.ar        1 DVA      -0.0493
     50 CD1        42.1386   53.8495   80.9468 C.ar        1 DVA      -0.0685
     51 CD2        42.0270   54.5417   83.2698 C.ar        1 DVA      -0.0685
     52 CE1        40.7346   53.7496   80.9122 C.ar        1 DVA      -0.0398
     53 CE2        40.6257   54.4302   83.2435 C.ar        1 DVA      -0.0398
     54 CZ         39.9720   54.0372   82.0616 C.ar        1 DVA       0.0805
     55 OH         38.6188   53.9576   82.0142 O.3         1 DVA      -0.3376
     56 N          46.0547   51.4019   83.7599 N.am        1 DVA      -0.2620
     57 CA         46.8250   50.2070   83.5742 C.3         1 DVA       0.1423
     58 C          47.0500   49.6121   84.8922 C.2         1 DVA       0.2051
     59 O          46.2203   48.8443   85.3631 O.2         1 DVA      -0.3943
     60 CB         46.2353   49.1985   82.5380 C.3         1 DVA       0.0406
     61 CG         44.8054   48.8691   82.7268 C.2         1 DVA       0.0393
     62 OD1        44.4168   47.5970   82.9746 O.co2       1 DVA      -0.5688
     63 OD2        43.8535   49.8124   82.5487 O.co2       1 DVA      -0.5688
     64 N          48.1134   49.9593   85.6110 N.am        1 DVA      -0.2671
     65 CA         48.5088   49.4193   86.8853 C.3         1 DVA       0.1173
     66 C          49.7927   50.0456   87.2775 C.2         1 DVA       0.0623
     67 O          50.9026   49.2937   87.4535 O.co2       1 DVA      -0.5665
     68 OXT        49.8831   51.3824   87.4705 O.co2       1 DVA      -0.5665
     69 CB         47.4570   49.6013   88.0180 C.3         1 DVA       0.0789
     70 OG         46.8956   50.9114   88.0080 O.3         1 DVA      -0.3910
     71 H1         40.5861   51.3958   93.7292 H           1 DVA       0.2015
     72 H2         40.6645   51.9836   95.2779 H           1 DVA       0.2015
     73 H3         40.2481   53.0028   94.0205 H           1 DVA       0.2015
     74 H4         38.8008   50.6818   94.9742 H           1 DVA       0.1101
     75 H5         36.8930   51.5222   93.4845 H           1 DVA       0.0376
     76 H6         37.5900   52.8835   91.4577 H           1 DVA       0.0236
     77 H7         39.0728   53.3088   92.3134 H           1 DVA       0.0236
     78 H8         37.4972   53.7888   92.9661 H           1 DVA       0.0236
     79 H9         38.2110   49.5209   92.9153 H           1 DVA       0.0236
     80 H10        39.3859   50.5229   92.0379 H           1 DVA       0.0236
     81 H11        37.7071   50.4113   91.4752 H           1 DVA       0.0236
     82 H12        40.5009   53.8784   96.0218 H           1 DVA       0.0802
     83 H13        40.1472   56.2934   97.2125 H           1 DVA       0.0313
     84 H14        40.3436   54.7727   98.1093 H           1 DVA       0.0313
     85 H15        37.7741   56.2532   97.4853 H           1 DVA       0.0287
     86 H16        38.2732   55.4917   99.0196 H           1 DVA       0.0287
     87 H17        37.6706   53.3477   98.2699 H           1 DVA       0.0524
     88 H18        36.6184   54.2636   97.1599 H           1 DVA       0.0524
     89 H19        41.2936   55.1944   94.3605 H           1 DVA       0.1881
     90 H20        39.7920   57.3171   93.1948 H           1 DVA       0.0763
     91 H21        39.8655   55.8772   92.1706 H           1 DVA       0.0763
     92 H22        41.0975   58.5106   91.7415 H           1 DVA       0.1884
     93 H23        43.9001   57.6980   91.4002 H           1 DVA       0.0823
     94 H24        44.3487   60.2040   91.4445 H           1 DVA       0.0606
     95 H25        43.8774   59.4826   92.9871 H           1 DVA       0.0606
     96 H26        42.7753   61.3583   92.6828 H           1 DVA       0.2097
     97 H27        42.2026   56.7308   89.6530 H           1 DVA       0.1883
     98 H28        42.8388   58.1731   87.1651 H           1 DVA       0.0801
     99 H29        40.4886   56.2680   87.6097 H           1 DVA       0.0337
    100 H30        40.8927   57.1627   86.1479 H           1 DVA       0.0337
    101 H31        38.9779   58.1904   87.3034 H           1 DVA       0.0504
    102 H32        40.3354   59.2958   87.1547 H           1 DVA       0.0504
    103 H33        39.4612   57.8331   90.8600 H           1 DVA       0.1814
    104 H34        39.3074   56.7780   89.5614 H           1 DVA       0.1814
    105 H35        41.8599   55.0441   86.6346 H           1 DVA       0.1885
    106 H36        42.7202   53.1345   86.2713 H           1 DVA       0.0817
    107 H37        44.6195   53.8703   88.5311 H           1 DVA       0.0420
    108 H38        44.7334   52.3476   87.6534 H           1 DVA       0.0420
    109 H39        43.4052   50.4538   88.8096 H           1 DVA       0.0729
    110 H40        40.3557   52.5961   90.5176 H           1 DVA       0.1199
    111 H41        41.3383   50.3189   90.2193 H           1 DVA       0.2361
    112 H42        43.4839   52.8963   84.3291 H           1 DVA       0.1885
    113 H43        46.0084   54.0978   83.4460 H           1 DVA       0.0821
    114 H44        44.7245   54.2213   81.1835 H           1 DVA       0.0453
    115 H45        44.4997   55.4479   82.3824 H           1 DVA       0.0453
    116 H46        42.6696   53.6469   80.0983 H           1 DVA       0.0530
    117 H47        42.4738   54.8638   84.1320 H           1 DVA       0.0530
    118 H48        40.2667   53.4684   80.0471 H           1 DVA       0.0525
    119 H49        40.0829   54.6511   84.0817 H           1 DVA       0.0525
    120 H50        38.3056   53.9486   82.9440 H           1 DVA       0.2458
    121 H51        45.9361   51.6875   84.6812 H           1 DVA       0.1884
    122 H52        47.7946   50.5168   83.1736 H           1 DVA       0.0819
    123 H53        46.8218   48.2760   82.5677 H           1 DVA       0.0478
    124 H54        46.3493   49.6057   81.5317 H           1 DVA       0.0478
    125 H55        48.7143   50.6122   85.2151 H           1 DVA       0.1876
    126 H56        48.6816   48.3445   86.7573 H           1 DVA       0.0749
    127 H57        47.9183   49.4246   88.9946 H           1 DVA       0.0599
    128 H58        46.6490   48.8749   87.9045 H           1 DVA       0.0599
    129 H59        46.4015   50.9853   88.8522 H           1 DVA       0.2096
@<TRIPOS>BOND
     1     1     2   1
     2     2     3   1
     3     2     6   1
     4     3     4   1
     5     3     5   1
     6     6     7   2
     7     6     8  am
     8     8     9   1
     9     8    12   1
    10     9    10   1
    11     9    13   1
    12    10    11   1
    13    11    12   1
    14    13    14   2
    15    13    15  am
    16    15    16   1
    17    16    17   1
    18    17    18   2
    19    17    19  am
    20    19    20   1
    21    20    21   1
    22    20    23   1
    23    21    22   2
    24    21    25  am
    25    23    24   1
    26    25    26   1
    27    26    27   1
    28    26    29   1
    29    27    28   2
    30    27    34  am
    31    29    30   1
    32    30    31   1
    33    31    32   2
    34    31    33  am
    35    34    35   1
    36    35    36   1
    37    35    38   1
    38    36    37   2
    39    36    44  am
    40    38    39   1
    41    39    40   1
    42    39    41   2
    43    40    42   2
    44    41    43   1
    45    42    43   1
    46    44    45   1
    47    45    46   1
    48    45    48   1
    49    46    47   2
    50    46    56  am
    51    48    49   1
    52    49    50  ar
    53    49    51  ar
    54    50    52  ar
    55    51    53  ar
    56    52    54  ar
    57    53    54  ar
    58    54    55   1
    59    56    57   1
    60    57    58   1
    61    57    60   1
    62    58    59   2
    63    58    64  am
    64    60    61   1
    65    61    62  ar
    66    61    63  ar
    67    64    65   1
    68    65    66   1
    69    65    69   1
    70    66    67  ar
    71    66    68  ar
    72    69    70   1
    73     1    71   1
    74     1    72   1
    75     1    73   1
    76     2    74   1
    77     3    75   1
    78     4    76   1
    79     4    77   1
    80     4    78   1
    81     5    79   1
    82     5    80   1
    83     5    81   1
    84     9    82   1
    85    10    83   1
    86    10    84   1
    87    11    85   1
    88    11    86   1
    89    12    87   1
    90    12    88   1
    91    15    89   1
    92    16    90   1
    93    16    91   1
    94    19    92   1
    95    20    93   1
    96    23    94   1
    97    23    95   1
    98    24    96   1
    99    25    97   1
   100    26    98   1
   101    29    99   1
   102    29   100   1
   103    30   101   1
   104    30   102   1
   105    33   103   1
   106    33   104   1
   107    34   105   1
   108    35   106   1
   109    38   107   1
   110    38   108   1
   111    41   109   1
   112    42   110   1
   113    43   111   1
   114    44   112   1
   115    45   113   1
   116    48   114   1
   117    48   115   1
   118    50   116   1
   119    51   117   1
   120    52   118   1
   121    53   119   1
   122    55   120   1
   123    56   121   1
   124    57   122   1
   125    60   123   1
   126    60   124   1
   127    64   125   1
   128    65   126   1
   129    69   127   1
   130    69   128   1
   131    70   129   1
@<TRIPOS>SUBSTRUCTURE
     1  DVA      2

