@<TRIPOS>MOLECULE
1zea_ligand_021
   129   131
SMALL
GAST_HUCK
****
This file was generated by PARSER (from files_GN.cpp)

@<TRIPOS>ATOM
      1 N          45.9527   62.0717   86.7233 N.4         1 DVA       0.2381
      2 CA         47.2974   62.5238   87.1284 C.3         1 DVA       0.0675
      3 CB         47.9808   61.5823   88.1876 C.3         1 DVA       0.0139
      4 CG1        47.9958   60.0922   87.7364 C.3         1 DVA      -0.0553
      5 CG2        49.4348   62.0255   88.5387 C.3         1 DVA      -0.0553
      6 C          47.2978   63.9559   87.4887 C.2         1 DVA       0.2295
      7 O          48.2556   64.5722   87.0279 O.2         1 DVA      -0.3905
      8 N          46.4040   64.6526   88.2259 N.am        1 DVA      -0.2471
      9 CA         45.2093   64.1541   88.8745 C.3         1 DVA       0.1339
     10 CB         44.5202   65.3887   89.5202 C.3         1 DVA      -0.0104
     11 CG         45.0986   66.5791   88.7543 C.3         1 DVA      -0.0281
     12 CD         46.4971   66.0865   88.3555 C.3         1 DVA       0.0371
     13 C          45.4103   63.1188   89.8804 C.2         1 DVA       0.2039
     14 O          46.3298   63.2373   90.6846 O.2         1 DVA      -0.3944
     15 N          44.5737   62.0921   89.9411 N.am        1 DVA      -0.2664
     16 CA         44.5858   61.0512   90.9217 C.3         1 DVA       0.1201
     17 C          43.6933   59.9604   90.5659 C.2         1 DVA       0.2008
     18 O          44.0874   58.8076   90.7065 O.2         1 DVA      -0.3947
     19 N          42.4507   60.2307   90.1853 N.am        1 DVA      -0.2618
     20 CA         41.3592   59.3476   89.8768 C.3         1 DVA       0.1539
     21 C          41.5429   58.6325   88.6140 C.2         1 DVA       0.2062
     22 O          40.6718   58.7351   87.7535 O.2         1 DVA      -0.3943
     23 CB         40.9559   58.4395   91.0696 C.3         1 DVA       0.0843
     24 OG         39.5957   58.0241   90.9616 O.3         1 DVA      -0.3903
     25 N          42.6236   57.8899   88.3870 N.am        1 DVA      -0.2635
     26 CA         42.9672   57.2250   87.1565 C.3         1 DVA       0.1330
     27 C          44.4200   57.1848   86.9893 C.2         1 DVA       0.2041
     28 O          45.1004   56.6126   87.8350 O.2         1 DVA      -0.3944
     29 CB         42.3266   55.8022   87.0164 C.3         1 DVA       0.0045
     30 CG         42.1264   54.9446   88.3037 C.3         1 DVA       0.0412
     31 CD         40.8030   55.0255   88.9004 C.2         1 DVA       0.1737
     32 OE1        39.8046   55.0002   88.1931 O.2         1 DVA      -0.3973
     33 NE2        40.6189   54.9702   90.2015 N.am        1 DVA      -0.3009
     34 N          44.9436   57.5763   85.8306 N.am        1 DVA      -0.2625
     35 CA         46.2780   57.3660   85.3321 C.3         1 DVA       0.1369
     36 C          46.3815   56.1631   84.5039 C.2         1 DVA       0.2055
     37 O          47.5105   55.7919   84.2067 O.2         1 DVA      -0.3942
     38 CB         46.7809   58.6289   84.5660 C.3         1 DVA       0.0145
     39 CG         45.8784   59.1371   83.5093 C.2         1 DVA      -0.0027
     40 ND1        44.7523   59.8385   83.7339 N.2         1 DVA      -0.3252
     41 CD2        46.0679   59.0751   82.1306 C.2         1 DVA       0.0291
     42 CE1        44.2587   60.1949   82.5351 C.2         1 DVA       0.0907
     43 NE2        45.0538   59.7310   81.5584 N.pl3       1 DVA      -0.2752
     44 N          45.3182   55.4616   84.1177 N.am        1 DVA      -0.2620
     45 CA         45.3102   54.2110   83.4004 C.3         1 DVA       0.1390
     46 C          44.9478   53.1304   84.3178 C.2         1 DVA       0.2058
     47 O          44.1179   52.2913   83.9873 O.2         1 DVA      -0.3942
     48 CB         44.4590   54.3328   82.0872 C.3         1 DVA       0.0163
     49 CG         42.9582   54.2917   82.1117 C.ar        1 DVA      -0.0493
     50 CD1        42.1884   54.5161   83.2792 C.ar        1 DVA      -0.0685
     51 CD2        42.2597   53.9876   80.9160 C.ar        1 DVA      -0.0685
     52 CE1        40.7871   54.3875   83.2696 C.ar        1 DVA      -0.0398
     53 CE2        40.8568   53.8569   80.9012 C.ar        1 DVA      -0.0398
     54 CZ         40.1136   54.0483   82.0820 C.ar        1 DVA       0.0805
     55 OH         38.7628   53.8971   82.0439 O.3         1 DVA      -0.3376
     56 N          45.5494   53.0388   85.5033 N.am        1 DVA      -0.2620
     57 CA         45.3151   52.0286   86.5019 C.3         1 DVA       0.1423
     58 C          45.8501   50.7516   86.0349 C.2         1 DVA       0.2051
     59 O          46.9620   50.3865   86.4006 O.2         1 DVA      -0.3943
     60 CB         45.8806   52.4805   87.8844 C.3         1 DVA       0.0406
     61 CG         45.5433   51.5221   88.9529 C.2         1 DVA       0.0393
     62 OD1        44.3054   51.5242   89.5007 O.co2       1 DVA      -0.5688
     63 OD2        46.3793   50.5040   89.2627 O.co2       1 DVA      -0.5688
     64 N          45.1958   50.1110   85.0766 N.am        1 DVA      -0.2671
     65 CA         45.6222   48.9621   84.3341 C.3         1 DVA       0.1173
     66 C          44.4609   48.4869   83.5573 C.2         1 DVA       0.0623
     67 O          43.8941   49.2553   82.5995 O.co2       1 DVA      -0.5665
     68 OXT        43.8960   47.2894   83.8226 O.co2       1 DVA      -0.5665
     69 CB         46.8449   49.2205   83.4030 C.3         1 DVA       0.0789
     70 OG         46.7754   50.4784   82.7346 O.3         1 DVA      -0.3910
     71 H1         46.0304   61.2185   86.1653 H           1 DVA       0.2015
     72 H2         45.4989   62.7949   86.1599 H           1 DVA       0.2015
     73 H3         45.3895   61.8754   87.5501 H           1 DVA       0.2015
     74 H4         47.8810   62.4046   86.2046 H           1 DVA       0.1101
     75 H5         47.4129   61.6146   89.1142 H           1 DVA       0.0376
     76 H6         48.5869   59.9695   86.8217 H           1 DVA       0.0236
     77 H7         46.9772   59.7391   87.5557 H           1 DVA       0.0236
     78 H8         48.4283   59.4624   88.5177 H           1 DVA       0.0236
     79 H9         50.0550   62.0698   87.6360 H           1 DVA       0.0236
     80 H10        49.8934   61.3284   89.2444 H           1 DVA       0.0236
     81 H11        49.4281   63.0121   89.0100 H           1 DVA       0.0236
     82 H12        44.5350   63.7987   88.0890 H           1 DVA       0.0802
     83 H13        44.7680   65.5098   90.5819 H           1 DVA       0.0313
     84 H14        43.4306   65.3435   89.4218 H           1 DVA       0.0313
     85 H15        45.1459   67.4833   89.3699 H           1 DVA       0.0287
     86 H16        44.4956   66.7781   87.8609 H           1 DVA       0.0287
     87 H17        46.7884   66.5785   87.4207 H           1 DVA       0.0524
     88 H18        47.2268   66.3311   89.1319 H           1 DVA       0.0524
     89 H19        43.8650   62.0750   89.2787 H           1 DVA       0.1881
     90 H20        44.2552   61.4735   91.8738 H           1 DVA       0.0763
     91 H21        45.6091   60.6835   91.0526 H           1 DVA       0.0763
     92 H22        42.2388   61.1729   90.1305 H           1 DVA       0.1884
     93 H23        40.5122   60.0306   89.7463 H           1 DVA       0.0823
     94 H24        41.0656   58.9858   92.0079 H           1 DVA       0.0606
     95 H25        41.5935   57.5578   91.1170 H           1 DVA       0.0606
     96 H26        39.0570   58.8422   91.0445 H           1 DVA       0.2097
     97 H27        43.2584   57.8058   89.1173 H           1 DVA       0.1883
     98 H28        42.5710   57.8262   86.3256 H           1 DVA       0.0801
     99 H29        42.9422   55.2079   86.3358 H           1 DVA       0.0337
    100 H30        41.3639   55.9115   86.5103 H           1 DVA       0.0337
    101 H31        42.8961   55.1998   89.0352 H           1 DVA       0.0504
    102 H32        42.2752   53.8936   88.0385 H           1 DVA       0.0504
    103 H33        39.7138   54.9804   90.5619 H           1 DVA       0.1814
    104 H34        41.3782   54.9290   90.8068 H           1 DVA       0.1814
    105 H35        44.3136   57.9284   85.1837 H           1 DVA       0.1885
    106 H36        46.9527   57.2242   86.1843 H           1 DVA       0.0817
    107 H37        47.7602   58.4133   84.1263 H           1 DVA       0.0420
    108 H38        46.9355   59.4384   85.2795 H           1 DVA       0.0420
    109 H39        46.8429   58.6262   81.6390 H           1 DVA       0.0729
    110 H40        43.4058   60.7398   82.3904 H           1 DVA       0.1199
    111 H41        44.9190   59.8550   80.6047 H           1 DVA       0.2361
    112 H42        44.4541   55.7973   84.3967 H           1 DVA       0.1885
    113 H43        46.3261   53.9697   83.0647 H           1 DVA       0.0821
    114 H44        44.7860   53.5008   81.4519 H           1 DVA       0.0453
    115 H45        44.7532   55.2505   81.5671 H           1 DVA       0.0453
    116 H46        42.6402   54.7583   84.1565 H           1 DVA       0.0530
    117 H47        42.7716   53.8300   80.0426 H           1 DVA       0.0530
    118 H48        40.2599   54.5362   84.1338 H           1 DVA       0.0525
    119 H49        40.3785   53.6078   80.0333 H           1 DVA       0.0525
    120 H50        38.4476   53.9603   82.9704 H           1 DVA       0.2458
    121 H51        46.1819   53.7407   85.7282 H           1 DVA       0.1884
    122 H52        44.2309   51.9342   86.6342 H           1 DVA       0.0819
    123 H53        45.4577   53.4525   88.1539 H           1 DVA       0.0478
    124 H54        46.9663   52.6090   87.8242 H           1 DVA       0.0478
    125 H55        44.3259   50.4779   84.8395 H           1 DVA       0.1876
    126 H56        45.8951   48.1839   85.0510 H           1 DVA       0.0749
    127 H57        46.9187   48.4352   82.6464 H           1 DVA       0.0599
    128 H58        47.7690   49.1931   83.9832 H           1 DVA       0.0599
    129 H59        46.9000   51.1542   83.4346 H           1 DVA       0.2096
@<TRIPOS>BOND
     1     1     2   1
     2     2     3   1
     3     2     6   1
     4     3     4   1
     5     3     5   1
     6     6     7   2
     7     6     8  am
     8     8     9   1
     9     8    12   1
    10     9    10   1
    11     9    13   1
    12    10    11   1
    13    11    12   1
    14    13    14   2
    15    13    15  am
    16    15    16   1
    17    16    17   1
    18    17    18   2
    19    17    19  am
    20    19    20   1
    21    20    21   1
    22    20    23   1
    23    21    22   2
    24    21    25  am
    25    23    24   1
    26    25    26   1
    27    26    27   1
    28    26    29   1
    29    27    28   2
    30    27    34  am
    31    29    30   1
    32    30    31   1
    33    31    32   2
    34    31    33  am
    35    34    35   1
    36    35    36   1
    37    35    38   1
    38    36    37   2
    39    36    44  am
    40    38    39   1
    41    39    40   1
    42    39    41   2
    43    40    42   2
    44    41    43   1
    45    42    43   1
    46    44    45   1
    47    45    46   1
    48    45    48   1
    49    46    47   2
    50    46    56  am
    51    48    49   1
    52    49    50  ar
    53    49    51  ar
    54    50    52  ar
    55    51    53  ar
    56    52    54  ar
    57    53    54  ar
    58    54    55   1
    59    56    57   1
    60    57    58   1
    61    57    60   1
    62    58    59   2
    63    58    64  am
    64    60    61   1
    65    61    62  ar
    66    61    63  ar
    67    64    65   1
    68    65    66   1
    69    65    69   1
    70    66    67  ar
    71    66    68  ar
    72    69    70   1
    73     1    71   1
    74     1    72   1
    75     1    73   1
    76     2    74   1
    77     3    75   1
    78     4    76   1
    79     4    77   1
    80     4    78   1
    81     5    79   1
    82     5    80   1
    83     5    81   1
    84     9    82   1
    85    10    83   1
    86    10    84   1
    87    11    85   1
    88    11    86   1
    89    12    87   1
    90    12    88   1
    91    15    89   1
    92    16    90   1
    93    16    91   1
    94    19    92   1
    95    20    93   1
    96    23    94   1
    97    23    95   1
    98    24    96   1
    99    25    97   1
   100    26    98   1
   101    29    99   1
   102    29   100   1
   103    30   101   1
   104    30   102   1
   105    33   103   1
   106    33   104   1
   107    34   105   1
   108    35   106   1
   109    38   107   1
   110    38   108   1
   111    41   109   1
   112    42   110   1
   113    43   111   1
   114    44   112   1
   115    45   113   1
   116    48   114   1
   117    48   115   1
   118    50   116   1
   119    51   117   1
   120    52   118   1
   121    53   119   1
   122    55   120   1
   123    56   121   1
   124    57   122   1
   125    60   123   1
   126    60   124   1
   127    64   125   1
   128    65   126   1
   129    69   127   1
   130    69   128   1
   131    70   129   1
@<TRIPOS>SUBSTRUCTURE
     1  DVA      2

