@<TRIPOS>MOLECULE
1zea_ligand_049
   129   131
SMALL
GAST_HUCK
****
This file was generated by PARSER (from files_GN.cpp)

@<TRIPOS>ATOM
      1 N          42.6437   53.3652   95.9954 N.4         1 DVA       0.2381
      2 CA         41.2365   52.9342   96.1824 C.3         1 DVA       0.0675
      3 CB         41.0200   52.2546   97.5825 C.3         1 DVA       0.0139
      4 CG1        41.3615   53.1977   98.7739 C.3         1 DVA      -0.0553
      5 CG2        39.5655   51.7040   97.7536 C.3         1 DVA      -0.0553
      6 C          40.8854   52.0578   95.0515 C.2         1 DVA       0.2295
      7 O          41.4850   50.9816   95.0281 O.2         1 DVA      -0.3905
      8 N          39.9990   52.3197   94.0623 N.am        1 DVA      -0.2471
      9 CA         39.2712   53.5611   93.8424 C.3         1 DVA       0.1339
     10 CB         38.3345   53.2598   92.6319 C.3         1 DVA      -0.0104
     11 CG         38.2221   51.7331   92.6035 C.3         1 DVA      -0.0281
     12 CD         39.5949   51.2874   93.1342 C.3         1 DVA       0.0371
     13 C          40.0728   54.7707   93.6105 C.2         1 DVA       0.2039
     14 O          41.2652   54.7797   93.8888 O.2         1 DVA      -0.3944
     15 N          39.4786   55.8428   93.0911 N.am        1 DVA      -0.2664
     16 CA         40.0504   57.1447   92.9260 C.3         1 DVA       0.1201
     17 C          40.5211   57.3160   91.5623 C.2         1 DVA       0.2008
     18 O          41.5415   56.7196   91.2335 O.2         1 DVA      -0.3947
     19 N          39.8567   58.0738   90.7055 N.am        1 DVA      -0.2618
     20 CA         40.2643   58.4063   89.3679 C.3         1 DVA       0.1539
     21 C          40.7963   57.2647   88.6355 C.2         1 DVA       0.2062
     22 O          40.0317   56.3603   88.3129 O.2         1 DVA      -0.3943
     23 CB         39.0520   59.0494   88.6317 C.3         1 DVA       0.0843
     24 OG         39.2061   59.0372   87.2160 O.3         1 DVA      -0.3903
     25 N          42.0481   57.2977   88.1996 N.am        1 DVA      -0.2635
     26 CA         42.6530   56.4859   87.1779 C.3         1 DVA       0.1330
     27 C          44.0948   56.7205   87.1946 C.2         1 DVA       0.2041
     28 O          44.7546   56.3379   88.1610 O.2         1 DVA      -0.3944
     29 CB         42.3049   54.9590   87.2174 C.3         1 DVA       0.0045
     30 CG         42.9251   54.0444   88.3237 C.3         1 DVA       0.0412
     31 CD         42.6750   54.4667   89.6918 C.2         1 DVA       0.1737
     32 OE1        41.6046   54.2140   90.2359 O.2         1 DVA      -0.3973
     33 NE2        43.6158   55.0376   90.4158 N.am        1 DVA      -0.3009
     34 N          44.7052   57.3848   86.2130 N.am        1 DVA      -0.2625
     35 CA         46.1253   57.6129   86.0663 C.3         1 DVA       0.1369
     36 C          46.7513   56.4866   85.3703 C.2         1 DVA       0.2055
     37 O          47.8118   56.0327   85.7890 O.2         1 DVA      -0.3942
     38 CB         46.4229   59.0049   85.4262 C.3         1 DVA       0.0145
     39 CG         45.8176   59.3003   84.1087 C.2         1 DVA      -0.0027
     40 ND1        44.6759   59.9835   83.8990 N.2         1 DVA      -0.3252
     41 CD2        46.3651   59.0219   82.8617 C.2         1 DVA       0.0291
     42 CE1        44.5179   60.1130   82.5728 C.2         1 DVA       0.0907
     43 NE2        45.5469   59.5368   81.9361 N.pl3       1 DVA      -0.2752
     44 N          46.1453   55.9280   84.3212 N.am        1 DVA      -0.2620
     45 CA         46.5795   54.7818   83.5653 C.3         1 DVA       0.1390
     46 C          46.1124   53.5433   84.1956 C.2         1 DVA       0.2058
     47 O          45.2323   52.8783   83.6678 O.2         1 DVA      -0.3942
     48 CB         46.2005   54.9769   82.0533 C.3         1 DVA       0.0163
     49 CG         44.8311   54.6188   81.5503 C.ar        1 DVA      -0.0493
     50 CD1        43.6818   54.5873   82.3812 C.ar        1 DVA      -0.0685
     51 CD2        44.6572   54.2823   80.1851 C.ar        1 DVA      -0.0685
     52 CE1        42.4244   54.2030   81.8800 C.ar        1 DVA      -0.0398
     53 CE2        43.4006   53.9141   79.6744 C.ar        1 DVA      -0.0398
     54 CZ         42.2775   53.8672   80.5199 C.ar        1 DVA       0.0805
     55 OH         41.0718   53.5137   80.0049 O.3         1 DVA      -0.3376
     56 N          46.6140   53.1481   85.3630 N.am        1 DVA      -0.2620
     57 CA         46.1398   52.0290   86.1396 C.3         1 DVA       0.1423
     58 C          46.4263   50.7676   85.4509 C.2         1 DVA       0.2051
     59 O          47.3667   50.0802   85.8311 O.2         1 DVA      -0.3943
     60 CB         46.7183   52.0973   87.5893 C.3         1 DVA       0.0406
     61 CG         46.0107   51.2132   88.5410 C.2         1 DVA       0.0393
     62 OD1        44.6892   51.3693   88.7707 O.co2       1 DVA      -0.5688
     63 OD2        46.6648   50.2453   89.2224 O.co2       1 DVA      -0.5688
     64 N          45.7601   50.4710   84.3396 N.am        1 DVA      -0.2671
     65 CA         45.9877   49.3718   83.4484 C.3         1 DVA       0.1173
     66 C          44.6816   48.8649   82.9861 C.2         1 DVA       0.0623
     67 O          43.8243   49.6596   82.3040 O.co2       1 DVA      -0.5665
     68 OXT        44.2683   47.6180   83.3027 O.co2       1 DVA      -0.5665
     69 CB         46.8978   49.7282   82.2382 C.3         1 DVA       0.0789
     70 OG         46.2118   50.4575   81.2214 O.3         1 DVA      -0.3910
     71 H1         42.8770   54.0580   96.7200 H           1 DVA       0.2015
     72 H2         42.7383   53.7933   95.0620 H           1 DVA       0.2015
     73 H3         43.2691   52.5482   96.0826 H           1 DVA       0.2015
     74 H4         40.6302   53.8469   96.1692 H           1 DVA       0.1101
     75 H5         41.6999   51.3968   97.6622 H           1 DVA       0.0376
     76 H6         40.7861   54.1234   98.7141 H           1 DVA       0.0236
     77 H7         42.4256   53.4434   98.7689 H           1 DVA       0.0236
     78 H8         41.1433   52.7109   99.7255 H           1 DVA       0.0236
     79 H9         38.8337   52.5186   97.6728 H           1 DVA       0.0236
     80 H10        39.4537   51.2244   98.7342 H           1 DVA       0.0236
     81 H11        39.3517   50.9550   96.9814 H           1 DVA       0.0236
     82 H12        38.6394   53.7268   94.7242 H           1 DVA       0.0802
     83 H13        38.7708   53.5923   91.6820 H           1 DVA       0.0313
     84 H14        37.3508   53.7276   92.7601 H           1 DVA       0.0313
     85 H15        38.0329   51.3460   91.5939 H           1 DVA       0.0287
     86 H16        37.4244   51.3976   93.2796 H           1 DVA       0.0287
     87 H17        39.4840   50.2985   93.5999 H           1 DVA       0.0524
     88 H18        40.3190   51.2192   92.3117 H           1 DVA       0.0524
     89 H19        38.5841   55.7195   92.7304 H           1 DVA       0.1881
     90 H20        40.8627   57.3276   93.6437 H           1 DVA       0.0763
     91 H21        39.2710   57.8764   93.1593 H           1 DVA       0.0763
     92 H22        39.0622   58.5254   91.0362 H           1 DVA       0.1884
     93 H23        41.0268   59.1868   89.4568 H           1 DVA       0.0823
     94 H24        38.9368   60.0883   88.9461 H           1 DVA       0.0606
     95 H25        38.1280   58.5157   88.8767 H           1 DVA       0.0606
     96 H26        40.1665   59.1365   87.0643 H           1 DVA       0.2097
     97 H27        42.5913   58.0267   88.5282 H           1 DVA       0.1883
     98 H28        42.2664   56.8578   86.2197 H           1 DVA       0.0801
     99 H29        42.6221   54.5282   86.2599 H           1 DVA       0.0337
    100 H30        41.2235   54.8245   87.2532 H           1 DVA       0.0337
    101 H31        44.0034   53.9481   88.1318 H           1 DVA       0.0504
    102 H32        42.4957   53.0409   88.2082 H           1 DVA       0.0504
    103 H33        43.4336   55.2742   91.3442 H           1 DVA       0.1814
    104 H34        44.4868   55.2267   90.0160 H           1 DVA       0.1814
    105 H35        44.1549   57.7023   85.4781 H           1 DVA       0.1885
    106 H36        46.5970   57.6703   87.0510 H           1 DVA       0.0817
    107 H37        47.5039   59.1327   85.3210 H           1 DVA       0.0420
    108 H38        46.0954   59.7785   86.1237 H           1 DVA       0.0420
    109 H39        47.2546   58.5507   82.6752 H           1 DVA       0.0729
    110 H40        43.7435   60.6019   82.1173 H           1 DVA       0.1199
    111 H41        45.6723   59.4947   80.9755 H           1 DVA       0.2361
    112 H42        45.3109   56.3359   84.0356 H           1 DVA       0.1885
    113 H43        47.6773   54.7563   83.5837 H           1 DVA       0.0821
    114 H44        46.9271   54.3803   81.4905 H           1 DVA       0.0453
    115 H45        46.3760   56.0192   81.7752 H           1 DVA       0.0453
    116 H46        43.7478   54.8050   83.3761 H           1 DVA       0.0530
    117 H47        45.4598   54.2901   79.5465 H           1 DVA       0.0530
    118 H48        41.6165   54.1620   82.5076 H           1 DVA       0.0525
    119 H49        43.3031   53.6904   78.6785 H           1 DVA       0.0525
    120 H50        40.4110   54.1180   80.4139 H           1 DVA       0.2458
    121 H51        47.3226   53.6875   85.7529 H           1 DVA       0.1884
    122 H52        45.0541   52.1490   86.2315 H           1 DVA       0.0819
    123 H53        46.6324   53.1214   87.9632 H           1 DVA       0.0478
    124 H54        47.7817   51.8500   87.5763 H           1 DVA       0.0478
    125 H55        45.0465   51.0810   84.0953 H           1 DVA       0.1876
    126 H56        46.4757   48.5775   84.0175 H           1 DVA       0.0749
    127 H57        47.3011   48.8173   81.7907 H           1 DVA       0.0599
    128 H58        47.7451   50.3273   82.5682 H           1 DVA       0.0599
    129 H59        45.7140   51.1523   81.6982 H           1 DVA       0.2096
@<TRIPOS>BOND
     1     1     2   1
     2     2     3   1
     3     2     6   1
     4     3     4   1
     5     3     5   1
     6     6     7   2
     7     6     8  am
     8     8     9   1
     9     8    12   1
    10     9    10   1
    11     9    13   1
    12    10    11   1
    13    11    12   1
    14    13    14   2
    15    13    15  am
    16    15    16   1
    17    16    17   1
    18    17    18   2
    19    17    19  am
    20    19    20   1
    21    20    21   1
    22    20    23   1
    23    21    22   2
    24    21    25  am
    25    23    24   1
    26    25    26   1
    27    26    27   1
    28    26    29   1
    29    27    28   2
    30    27    34  am
    31    29    30   1
    32    30    31   1
    33    31    32   2
    34    31    33  am
    35    34    35   1
    36    35    36   1
    37    35    38   1
    38    36    37   2
    39    36    44  am
    40    38    39   1
    41    39    40   1
    42    39    41   2
    43    40    42   2
    44    41    43   1
    45    42    43   1
    46    44    45   1
    47    45    46   1
    48    45    48   1
    49    46    47   2
    50    46    56  am
    51    48    49   1
    52    49    50  ar
    53    49    51  ar
    54    50    52  ar
    55    51    53  ar
    56    52    54  ar
    57    53    54  ar
    58    54    55   1
    59    56    57   1
    60    57    58   1
    61    57    60   1
    62    58    59   2
    63    58    64  am
    64    60    61   1
    65    61    62  ar
    66    61    63  ar
    67    64    65   1
    68    65    66   1
    69    65    69   1
    70    66    67  ar
    71    66    68  ar
    72    69    70   1
    73     1    71   1
    74     1    72   1
    75     1    73   1
    76     2    74   1
    77     3    75   1
    78     4    76   1
    79     4    77   1
    80     4    78   1
    81     5    79   1
    82     5    80   1
    83     5    81   1
    84     9    82   1
    85    10    83   1
    86    10    84   1
    87    11    85   1
    88    11    86   1
    89    12    87   1
    90    12    88   1
    91    15    89   1
    92    16    90   1
    93    16    91   1
    94    19    92   1
    95    20    93   1
    96    23    94   1
    97    23    95   1
    98    24    96   1
    99    25    97   1
   100    26    98   1
   101    29    99   1
   102    29   100   1
   103    30   101   1
   104    30   102   1
   105    33   103   1
   106    33   104   1
   107    34   105   1
   108    35   106   1
   109    38   107   1
   110    38   108   1
   111    41   109   1
   112    42   110   1
   113    43   111   1
   114    44   112   1
   115    45   113   1
   116    48   114   1
   117    48   115   1
   118    50   116   1
   119    51   117   1
   120    52   118   1
   121    53   119   1
   122    55   120   1
   123    56   121   1
   124    57   122   1
   125    60   123   1
   126    60   124   1
   127    64   125   1
   128    65   126   1
   129    69   127   1
   130    69   128   1
   131    70   129   1
@<TRIPOS>SUBSTRUCTURE
     1  DVA      2

