@<TRIPOS>MOLECULE
1zea_ligand_057
   129   131
SMALL
GAST_HUCK
****
This file was generated by PARSER (from files_GN.cpp)

@<TRIPOS>ATOM
      1 N          52.0102   54.0498   82.1526 N.4         1 DVA       0.2381
      2 CA         52.9543   52.9364   82.3594 C.3         1 DVA       0.0675
      3 CB         54.1244   53.3679   83.3270 C.3         1 DVA       0.0139
      4 CG1        53.6230   54.1285   84.5890 C.3         1 DVA      -0.0553
      5 CG2        55.0011   52.1666   83.7835 C.3         1 DVA      -0.0553
      6 C          53.4252   52.4957   81.0355 C.2         1 DVA       0.2295
      7 O          54.3081   53.1844   80.5477 O.2         1 DVA      -0.3905
      8 N          52.9864   51.4191   80.3406 N.am        1 DVA      -0.2471
      9 CA         51.8100   50.6141   80.6126 C.3         1 DVA       0.1339
     10 CB         51.8764   49.4760   79.5491 C.3         1 DVA      -0.0104
     11 CG         53.3454   49.4243   79.1195 C.3         1 DVA      -0.0281
     12 CD         53.7554   50.8969   79.2382 C.3         1 DVA       0.0371
     13 C          50.5062   51.2762   80.5684 C.2         1 DVA       0.2039
     14 O          50.4069   52.4525   80.9582 O.2         1 DVA      -0.3944
     15 N          49.4226   50.5782   80.2455 N.am        1 DVA      -0.2664
     16 CA         48.0696   51.0425   80.1735 C.3         1 DVA       0.1201
     17 C          47.4408   50.9861   81.4832 C.2         1 DVA       0.2008
     18 O          47.8354   51.7824   82.3299 O.2         1 DVA      -0.3947
     19 N          46.4739   50.1102   81.7505 N.am        1 DVA      -0.2618
     20 CA         45.8417   49.9108   83.0228 C.3         1 DVA       0.1539
     21 C          44.6871   50.7928   83.1501 C.2         1 DVA       0.2062
     22 O          43.5713   50.4289   82.7850 O.2         1 DVA      -0.3943
     23 CB         45.5439   48.4064   83.2809 C.3         1 DVA       0.0843
     24 OG         44.2724   47.9484   82.8180 O.3         1 DVA      -0.3903
     25 N          44.8695   52.0139   83.6313 N.am        1 DVA      -0.2635
     26 CA         43.8520   52.9633   84.0009 C.3         1 DVA       0.1330
     27 C          44.4399   53.8021   85.0390 C.2         1 DVA       0.2041
     28 O          44.4789   55.0260   84.9244 O.2         1 DVA      -0.3944
     29 CB         43.3059   53.6814   82.7256 C.3         1 DVA       0.0045
     30 CG         41.9229   54.3788   82.8775 C.3         1 DVA       0.0412
     31 CD         40.9136   53.6028   83.5766 C.2         1 DVA       0.1737
     32 OE1        40.8777   52.3826   83.4631 O.2         1 DVA      -0.3973
     33 NE2        39.9962   54.1751   84.3219 N.am        1 DVA      -0.3009
     34 N          44.9585   53.2027   86.1020 N.am        1 DVA      -0.2625
     35 CA         45.6408   53.7885   87.2259 C.3         1 DVA       0.1369
     36 C          44.8068   53.6522   88.4199 C.2         1 DVA       0.2055
     37 O          45.3241   53.5226   89.5233 O.2         1 DVA      -0.3942
     38 CB         47.0775   53.1681   87.3165 C.3         1 DVA       0.0145
     39 CG         47.1451   51.6920   87.2748 C.2         1 DVA      -0.0027
     40 ND1        47.9967   50.9851   86.5072 N.2         1 DVA      -0.3252
     41 CD2        46.3728   50.7678   87.9819 C.2         1 DVA       0.0291
     42 CE1        47.7601   49.6812   86.7244 C.2         1 DVA       0.0907
     43 NE2        46.7639   49.5480   87.6150 N.pl3       1 DVA      -0.2752
     44 N          43.4912   53.8161   88.3124 N.am        1 DVA      -0.2620
     45 CA         42.5052   53.7378   89.3515 C.3         1 DVA       0.1390
     46 C          41.9917   55.0570   89.6988 C.2         1 DVA       0.2058
     47 O          41.7177   55.2786   90.8737 O.2         1 DVA      -0.3942
     48 CB         41.3709   52.7772   88.8739 C.3         1 DVA       0.0163
     49 CG         40.3970   52.4488   89.9532 C.ar        1 DVA      -0.0493
     50 CD1        40.7782   51.5877   91.0073 C.ar        1 DVA      -0.0685
     51 CD2        39.1233   53.0545   89.9898 C.ar        1 DVA      -0.0685
     52 CE1        39.9118   51.3549   92.0915 C.ar        1 DVA      -0.0398
     53 CE2        38.2572   52.8300   91.0756 C.ar        1 DVA      -0.0398
     54 CZ         38.6515   51.9837   92.1361 C.ar        1 DVA       0.0805
     55 OH         37.8140   51.7879   93.1826 O.3         1 DVA      -0.3376
     56 N          41.8332   56.0164   88.7877 N.am        1 DVA      -0.2620
     57 CA         41.4265   57.3752   89.0242 C.3         1 DVA       0.1423
     58 C          42.2831   57.9810   90.0479 C.2         1 DVA       0.2051
     59 O          41.7967   58.2477   91.1433 O.2         1 DVA      -0.3943
     60 CB         41.4758   58.2055   87.7050 C.3         1 DVA       0.0406
     61 CG         40.5199   57.7316   86.6887 C.2         1 DVA       0.0393
     62 OD1        39.5584   58.5508   86.2043 O.co2       1 DVA      -0.5688
     63 OD2        40.6636   56.5100   86.1265 O.co2       1 DVA      -0.5688
     64 N          43.5735   58.1432   89.8030 N.am        1 DVA      -0.2671
     65 CA         44.5873   58.5714   90.7207 C.3         1 DVA       0.1173
     66 C          45.6248   57.5168   90.7487 C.2         1 DVA       0.0623
     67 O          45.3001   56.2649   91.1555 O.co2       1 DVA      -0.5665
     68 OXT        46.9090   57.7394   90.3662 O.co2       1 DVA      -0.5665
     69 CB         45.1109   59.9617   90.2825 C.3         1 DVA       0.0789
     70 OG         44.0570   60.9196   90.2458 O.3         1 DVA      -0.3910
     71 H1         51.6052   54.3195   83.0489 H           1 DVA       0.2015
     72 H2         51.2592   53.7350   81.5211 H           1 DVA       0.2015
     73 H3         52.5069   54.8439   81.7463 H           1 DVA       0.2015
     74 H4         52.4017   52.1321   82.8568 H           1 DVA       0.1101
     75 H5         54.7802   54.0582   82.7876 H           1 DVA       0.0376
     76 H6         54.4606   54.3827   85.2437 H           1 DVA       0.0236
     77 H7         52.9149   53.5209   85.1563 H           1 DVA       0.0236
     78 H8         53.1363   55.0637   84.3094 H           1 DVA       0.0236
     79 H9         55.3870   51.6149   82.9247 H           1 DVA       0.0236
     80 H10        54.4162   51.4887   84.4079 H           1 DVA       0.0236
     81 H11        55.8597   52.5187   84.3631 H           1 DVA       0.0236
     82 H12        51.9369   50.1533   81.5993 H           1 DVA       0.0802
     83 H13        51.2663   49.7032   78.6639 H           1 DVA       0.0313
     84 H14        51.5524   48.5092   79.9600 H           1 DVA       0.0313
     85 H15        53.4672   49.0379   78.1059 H           1 DVA       0.0287
     86 H16        53.9179   48.8113   79.8212 H           1 DVA       0.0287
     87 H17        54.8376   50.9453   79.4119 H           1 DVA       0.0524
     88 H18        53.5088   51.4455   78.3199 H           1 DVA       0.0524
     89 H19        49.5562   49.6586   79.9663 H           1 DVA       0.1881
     90 H20        47.5387   50.4049   79.4568 H           1 DVA       0.0763
     91 H21        48.0028   52.0690   79.7915 H           1 DVA       0.0763
     92 H22        46.2075   49.5170   81.0332 H           1 DVA       0.1884
     93 H23        46.5572   50.1740   83.8049 H           1 DVA       0.0823
     94 H24        45.5873   48.1975   84.3560 H           1 DVA       0.0606
     95 H25        46.3199   47.8057   82.7965 H           1 DVA       0.0606
     96 H26        44.3088   48.0203   81.8531 H           1 DVA       0.2097
     97 H27        45.7899   52.2479   83.8642 H           1 DVA       0.1883
     98 H28        43.0331   52.4187   84.4687 H           1 DVA       0.0801
     99 H29        43.2186   52.9614   81.9053 H           1 DVA       0.0337
    100 H30        44.0348   54.4345   82.4034 H           1 DVA       0.0337
    101 H31        41.5333   54.5841   81.8753 H           1 DVA       0.0504
    102 H32        42.0671   55.3403   83.3712 H           1 DVA       0.0504
    103 H33        39.3446   53.6421   84.8014 H           1 DVA       0.1814
    104 H34        39.9749   55.1405   84.4068 H           1 DVA       0.1814
    105 H35        44.8758   52.2342   86.1244 H           1 DVA       0.1885
    106 H36        45.7672   54.8664   87.0782 H           1 DVA       0.0817
    107 H37        47.5765   53.5134   88.2259 H           1 DVA       0.0420
    108 H38        47.6553   53.5583   86.4780 H           1 DVA       0.0420
    109 H39        45.6317   50.9750   88.6542 H           1 DVA       0.0729
    110 H40        48.2500   48.9098   86.2736 H           1 DVA       0.1199
    111 H41        46.4015   48.7089   87.9384 H           1 DVA       0.2361
    112 H42        43.1547   53.9956   87.4216 H           1 DVA       0.1885
    113 H43        42.9553   53.3031   90.2508 H           1 DVA       0.0821
    114 H44        41.8082   51.8394   88.5115 H           1 DVA       0.0453
    115 H45        40.8585   53.2308   88.0157 H           1 DVA       0.0453
    116 H46        41.6947   51.1395   91.0060 H           1 DVA       0.0530
    117 H47        38.8259   53.6949   89.2495 H           1 DVA       0.0530
    118 H48        40.2019   50.7426   92.8537 H           1 DVA       0.0525
    119 H49        37.3602   53.3006   91.1110 H           1 DVA       0.0525
    120 H50        38.2147   52.2795   93.9356 H           1 DVA       0.2458
    121 H51        42.0289   55.7820   87.8690 H           1 DVA       0.1884
    122 H52        40.3816   57.3633   89.3710 H           1 DVA       0.0819
    123 H53        42.4746   58.1621   87.2748 H           1 DVA       0.0478
    124 H54        41.2510   59.2518   87.9316 H           1 DVA       0.0478
    125 H55        43.8764   57.9261   88.9036 H           1 DVA       0.1876
    126 H56        44.2063   58.6689   91.7367 H           1 DVA       0.0749
    127 H57        45.5662   59.9101   89.2879 H           1 DVA       0.0599
    128 H58        45.8656   60.3192   90.9888 H           1 DVA       0.0599
    129 H59        43.8031   61.0595   91.1843 H           1 DVA       0.2096
@<TRIPOS>BOND
     1     1     2   1
     2     2     3   1
     3     2     6   1
     4     3     4   1
     5     3     5   1
     6     6     7   2
     7     6     8  am
     8     8     9   1
     9     8    12   1
    10     9    10   1
    11     9    13   1
    12    10    11   1
    13    11    12   1
    14    13    14   2
    15    13    15  am
    16    15    16   1
    17    16    17   1
    18    17    18   2
    19    17    19  am
    20    19    20   1
    21    20    21   1
    22    20    23   1
    23    21    22   2
    24    21    25  am
    25    23    24   1
    26    25    26   1
    27    26    27   1
    28    26    29   1
    29    27    28   2
    30    27    34  am
    31    29    30   1
    32    30    31   1
    33    31    32   2
    34    31    33  am
    35    34    35   1
    36    35    36   1
    37    35    38   1
    38    36    37   2
    39    36    44  am
    40    38    39   1
    41    39    40   1
    42    39    41   2
    43    40    42   2
    44    41    43   1
    45    42    43   1
    46    44    45   1
    47    45    46   1
    48    45    48   1
    49    46    47   2
    50    46    56  am
    51    48    49   1
    52    49    50  ar
    53    49    51  ar
    54    50    52  ar
    55    51    53  ar
    56    52    54  ar
    57    53    54  ar
    58    54    55   1
    59    56    57   1
    60    57    58   1
    61    57    60   1
    62    58    59   2
    63    58    64  am
    64    60    61   1
    65    61    62  ar
    66    61    63  ar
    67    64    65   1
    68    65    66   1
    69    65    69   1
    70    66    67  ar
    71    66    68  ar
    72    69    70   1
    73     1    71   1
    74     1    72   1
    75     1    73   1
    76     2    74   1
    77     3    75   1
    78     4    76   1
    79     4    77   1
    80     4    78   1
    81     5    79   1
    82     5    80   1
    83     5    81   1
    84     9    82   1
    85    10    83   1
    86    10    84   1
    87    11    85   1
    88    11    86   1
    89    12    87   1
    90    12    88   1
    91    15    89   1
    92    16    90   1
    93    16    91   1
    94    19    92   1
    95    20    93   1
    96    23    94   1
    97    23    95   1
    98    24    96   1
    99    25    97   1
   100    26    98   1
   101    29    99   1
   102    29   100   1
   103    30   101   1
   104    30   102   1
   105    33   103   1
   106    33   104   1
   107    34   105   1
   108    35   106   1
   109    38   107   1
   110    38   108   1
   111    41   109   1
   112    42   110   1
   113    43   111   1
   114    44   112   1
   115    45   113   1
   116    48   114   1
   117    48   115   1
   118    50   116   1
   119    51   117   1
   120    52   118   1
   121    53   119   1
   122    55   120   1
   123    56   121   1
   124    57   122   1
   125    60   123   1
   126    60   124   1
   127    64   125   1
   128    65   126   1
   129    69   127   1
   130    69   128   1
   131    70   129   1
@<TRIPOS>SUBSTRUCTURE
     1  DVA      2

