@<TRIPOS>MOLECULE
1zea_ligand_024
   129   131
SMALL
GAST_HUCK
****
This file was generated by PARSER (from files_GN.cpp)

@<TRIPOS>ATOM
      1 N          45.3157   62.5698   85.7081 N.4         1 DVA       0.2381
      2 CA         45.7850   61.8831   86.9269 C.3         1 DVA       0.0675
      3 CB         45.0264   62.4158   88.1933 C.3         1 DVA       0.0139
      4 CG1        45.1513   61.4398   89.3974 C.3         1 DVA      -0.0553
      5 CG2        45.4001   63.8613   88.6341 C.3         1 DVA      -0.0553
      6 C          47.2515   61.9487   86.9936 C.2         1 DVA       0.2295
      7 O          47.7258   63.0811   87.0044 O.2         1 DVA      -0.3905
      8 N          48.0968   60.8987   87.0236 N.am        1 DVA      -0.2471
      9 CA         47.7275   59.5017   87.0526 C.3         1 DVA       0.1339
     10 CB         49.0132   58.7630   87.4994 C.3         1 DVA      -0.0104
     11 CG         50.1513   59.6792   87.0412 C.3         1 DVA      -0.0281
     12 CD         49.5232   61.0803   87.1142 C.3         1 DVA       0.0371
     13 C          47.2261   58.9909   85.7734 C.2         1 DVA       0.2039
     14 O          47.7750   59.3308   84.7327 O.2         1 DVA      -0.3944
     15 N          46.2336   58.1070   85.7656 N.am        1 DVA      -0.2664
     16 CA         45.6516   57.4815   84.6132 C.3         1 DVA       0.1201
     17 C          46.4839   56.5185   83.9133 C.2         1 DVA       0.2008
     18 O          47.7083   56.5940   83.9722 O.2         1 DVA      -0.3947
     19 N          45.8800   55.5785   83.1958 N.am        1 DVA      -0.2618
     20 CA         46.4824   54.5824   82.3549 C.3         1 DVA       0.1539
     21 C          45.7145   53.3422   82.4578 C.2         1 DVA       0.2062
     22 O          45.0708   52.9196   81.5027 O.2         1 DVA      -0.3943
     23 CB         46.6052   55.1566   80.9154 C.3         1 DVA       0.0843
     24 OG         47.6596   56.1143   80.8340 O.3         1 DVA      -0.3903
     25 N          45.7461   52.6768   83.6052 N.am        1 DVA      -0.2635
     26 CA         45.1306   51.4165   83.9344 C.3         1 DVA       0.1330
     27 C          43.7026   51.5812   84.2101 C.2         1 DVA       0.2041
     28 O          42.8642   50.8480   83.6892 O.2         1 DVA      -0.3944
     29 CB         45.5375   50.3069   82.8993 C.3         1 DVA       0.0045
     30 CG         45.9452   48.9406   83.5122 C.3         1 DVA       0.0412
     31 CD         44.8953   48.2743   84.2575 C.2         1 DVA       0.1737
     32 OE1        43.9455   47.7726   83.6760 O.2         1 DVA      -0.3973
     33 NE2        44.9405   48.1725   85.5696 N.am        1 DVA      -0.3009
     34 N          43.3291   52.5324   85.0537 N.am        1 DVA      -0.2625
     35 CA         42.0065   52.8730   85.5223 C.3         1 DVA       0.1369
     36 C          42.0065   53.1391   86.9692 C.2         1 DVA       0.2055
     37 O          43.0629   53.1944   87.5952 O.2         1 DVA      -0.3942
     38 CB         41.5161   54.1226   84.7214 C.3         1 DVA       0.0145
     39 CG         41.5294   53.9236   83.2593 C.2         1 DVA      -0.0027
     40 ND1        42.4290   54.4453   82.4021 N.2         1 DVA      -0.3252
     41 CD2        40.6331   53.1628   82.5157 C.2         1 DVA       0.0291
     42 CE1        42.1045   54.0101   81.1739 C.2         1 DVA       0.0907
     43 NE2        41.0103   53.2368   81.2374 N.pl3       1 DVA      -0.2752
     44 N          40.8583   53.3501   87.6061 N.am        1 DVA      -0.2620
     45 CA         40.6263   53.6697   88.9978 C.3         1 DVA       0.1390
     46 C          40.6816   52.5052   89.8834 C.2         1 DVA       0.2058
     47 O          41.4200   51.5644   89.6198 O.2         1 DVA      -0.3942
     48 CB         41.4747   54.8621   89.5647 C.3         1 DVA       0.0163
     49 CG         40.9867   56.1914   89.1019 C.ar        1 DVA      -0.0493
     50 CD1        41.2222   56.6261   87.7763 C.ar        1 DVA      -0.0685
     51 CD2        40.2529   57.0385   89.9699 C.ar        1 DVA      -0.0685
     52 CE1        40.7125   57.8547   87.3182 C.ar        1 DVA      -0.0398
     53 CE2        39.7373   58.2630   89.5116 C.ar        1 DVA      -0.0398
     54 CZ         39.9630   58.6704   88.1852 C.ar        1 DVA       0.0805
     55 OH         39.4681   59.8517   87.7428 O.3         1 DVA      -0.3376
     56 N          39.9243   52.4959   90.9766 N.am        1 DVA      -0.2620
     57 CA         39.7749   51.4273   91.9258 C.3         1 DVA       0.1423
     58 C          40.4847   51.8001   93.1479 C.2         1 DVA       0.2051
     59 O          39.8786   51.9720   94.1998 O.2         1 DVA      -0.3943
     60 CB         38.2476   51.1374   92.0614 C.3         1 DVA       0.0406
     61 CG         37.9523   49.8537   92.7357 C.2         1 DVA       0.0393
     62 OD1        37.6956   49.8281   94.0640 O.co2       1 DVA      -0.5688
     63 OD2        37.6138   48.7648   92.0069 O.co2       1 DVA      -0.5688
     64 N          41.8044   51.9565   93.0981 N.am        1 DVA      -0.2671
     65 CA         42.6868   52.2690   94.1826 C.3         1 DVA       0.1173
     66 C          43.6828   51.1843   94.2885 C.2         1 DVA       0.0623
     67 O          44.7428   51.1323   93.4480 O.co2       1 DVA      -0.5665
     68 OXT        43.3790   50.0603   94.9813 O.co2       1 DVA      -0.5665
     69 CB         43.3531   53.6480   93.9432 C.3         1 DVA       0.0789
     70 OG         42.3726   54.6831   93.9246 O.3         1 DVA      -0.3910
     71 H1         44.2988   62.4848   85.6344 H           1 DVA       0.2015
     72 H2         45.7460   62.1412   84.8863 H           1 DVA       0.2015
     73 H3         45.5688   63.5588   85.7434 H           1 DVA       0.2015
     74 H4         45.4665   60.8526   86.7838 H           1 DVA       0.1101
     75 H5         43.9620   62.4435   87.9341 H           1 DVA       0.0376
     76 H6         44.5605   61.7970   90.2433 H           1 DVA       0.0236
     77 H7         46.1915   61.3486   89.7146 H           1 DVA       0.0236
     78 H8         44.7791   60.4506   89.1238 H           1 DVA       0.0236
     79 H9         45.3571   64.5480   87.7882 H           1 DVA       0.0236
     80 H10        46.4047   63.8941   89.0587 H           1 DVA       0.0236
     81 H11        44.6970   64.2159   89.3915 H           1 DVA       0.0236
     82 H12        46.9814   59.3426   87.8377 H           1 DVA       0.0802
     83 H13        49.1097   57.7563   87.0808 H           1 DVA       0.0313
     84 H14        49.0383   58.6838   88.5908 H           1 DVA       0.0313
     85 H15        50.4334   59.4393   86.0116 H           1 DVA       0.0287
     86 H16        51.0314   59.5916   87.6847 H           1 DVA       0.0287
     87 H17        49.7764   61.5552   88.0682 H           1 DVA       0.0524
     88 H18        49.9010   61.7002   86.2955 H           1 DVA       0.0524
     89 H19        45.8463   57.8769   86.6231 H           1 DVA       0.1881
     90 H20        45.3379   58.2576   83.9109 H           1 DVA       0.0763
     91 H21        44.7528   56.9611   84.9491 H           1 DVA       0.0763
     92 H22        44.9103   55.5845   83.2064 H           1 DVA       0.1884
     93 H23        47.5081   54.3666   82.6727 H           1 DVA       0.0823
     94 H24        45.6747   55.6422   80.6083 H           1 DVA       0.0606
     95 H25        46.8300   54.3514   80.2105 H           1 DVA       0.0606
     96 H26        47.6678   56.4081   79.8964 H           1 DVA       0.2097
     97 H27        46.2782   53.0790   84.3096 H           1 DVA       0.1883
     98 H28        45.5840   51.1382   84.8920 H           1 DVA       0.0801
     99 H29        46.4132   50.6411   82.3332 H           1 DVA       0.0337
    100 H30        44.7458   50.1523   82.1627 H           1 DVA       0.0337
    101 H31        46.8187   49.1001   84.1539 H           1 DVA       0.0504
    102 H32        46.2666   48.2752   82.7058 H           1 DVA       0.0504
    103 H33        44.2322   47.7087   86.0494 H           1 DVA       0.1814
    104 H34        45.6802   48.5593   86.0658 H           1 DVA       0.1814
    105 H35        44.0455   53.1029   85.3843 H           1 DVA       0.1885
    106 H36        41.3125   52.0454   85.3447 H           1 DVA       0.0817
    107 H37        42.1502   54.9807   84.9720 H           1 DVA       0.0420
    108 H38        40.4896   54.3803   85.0010 H           1 DVA       0.0420
    109 H39        39.8315   52.6387   82.8729 H           1 DVA       0.0729
    110 H40        42.6129   54.2306   80.3181 H           1 DVA       0.1199
    111 H41        40.5744   52.8000   80.4878 H           1 DVA       0.2361
    112 H42        40.0634   53.2253   87.0661 H           1 DVA       0.1885
    113 H43        39.5797   53.9909   89.0167 H           1 DVA       0.0821
    114 H44        42.5266   54.7484   89.2956 H           1 DVA       0.0453
    115 H45        41.4408   54.8451   90.6590 H           1 DVA       0.0453
    116 H46        41.7706   56.0485   87.1375 H           1 DVA       0.0530
    117 H47        40.0788   56.7626   90.9392 H           1 DVA       0.0530
    118 H48        40.8876   58.1515   86.3569 H           1 DVA       0.0525
    119 H49        39.2071   58.8569   90.1489 H           1 DVA       0.0525
    120 H50        38.5118   59.8309   87.9728 H           1 DVA       0.2458
    121 H51        39.3936   53.2921   91.1425 H           1 DVA       0.1884
    122 H52        40.2421   50.5117   91.5527 H           1 DVA       0.0819
    123 H53        37.8034   51.0986   91.0666 H           1 DVA       0.0478
    124 H54        37.7515   51.9510   92.5960 H           1 DVA       0.0478
    125 H55        42.2198   51.8505   92.2282 H           1 DVA       0.1876
    126 H56        42.1539   52.3273   95.1366 H           1 DVA       0.0749
    127 H57        43.8831   53.6616   92.9867 H           1 DVA       0.0599
    128 H58        44.0705   53.8661   94.7399 H           1 DVA       0.0599
    129 H59        42.0217   54.7233   94.8392 H           1 DVA       0.2096
@<TRIPOS>BOND
     1     1     2   1
     2     2     3   1
     3     2     6   1
     4     3     4   1
     5     3     5   1
     6     6     7   2
     7     6     8  am
     8     8     9   1
     9     8    12   1
    10     9    10   1
    11     9    13   1
    12    10    11   1
    13    11    12   1
    14    13    14   2
    15    13    15  am
    16    15    16   1
    17    16    17   1
    18    17    18   2
    19    17    19  am
    20    19    20   1
    21    20    21   1
    22    20    23   1
    23    21    22   2
    24    21    25  am
    25    23    24   1
    26    25    26   1
    27    26    27   1
    28    26    29   1
    29    27    28   2
    30    27    34  am
    31    29    30   1
    32    30    31   1
    33    31    32   2
    34    31    33  am
    35    34    35   1
    36    35    36   1
    37    35    38   1
    38    36    37   2
    39    36    44  am
    40    38    39   1
    41    39    40   1
    42    39    41   2
    43    40    42   2
    44    41    43   1
    45    42    43   1
    46    44    45   1
    47    45    46   1
    48    45    48   1
    49    46    47   2
    50    46    56  am
    51    48    49   1
    52    49    50  ar
    53    49    51  ar
    54    50    52  ar
    55    51    53  ar
    56    52    54  ar
    57    53    54  ar
    58    54    55   1
    59    56    57   1
    60    57    58   1
    61    57    60   1
    62    58    59   2
    63    58    64  am
    64    60    61   1
    65    61    62  ar
    66    61    63  ar
    67    64    65   1
    68    65    66   1
    69    65    69   1
    70    66    67  ar
    71    66    68  ar
    72    69    70   1
    73     1    71   1
    74     1    72   1
    75     1    73   1
    76     2    74   1
    77     3    75   1
    78     4    76   1
    79     4    77   1
    80     4    78   1
    81     5    79   1
    82     5    80   1
    83     5    81   1
    84     9    82   1
    85    10    83   1
    86    10    84   1
    87    11    85   1
    88    11    86   1
    89    12    87   1
    90    12    88   1
    91    15    89   1
    92    16    90   1
    93    16    91   1
    94    19    92   1
    95    20    93   1
    96    23    94   1
    97    23    95   1
    98    24    96   1
    99    25    97   1
   100    26    98   1
   101    29    99   1
   102    29   100   1
   103    30   101   1
   104    30   102   1
   105    33   103   1
   106    33   104   1
   107    34   105   1
   108    35   106   1
   109    38   107   1
   110    38   108   1
   111    41   109   1
   112    42   110   1
   113    43   111   1
   114    44   112   1
   115    45   113   1
   116    48   114   1
   117    48   115   1
   118    50   116   1
   119    51   117   1
   120    52   118   1
   121    53   119   1
   122    55   120   1
   123    56   121   1
   124    57   122   1
   125    60   123   1
   126    60   124   1
   127    64   125   1
   128    65   126   1
   129    69   127   1
   130    69   128   1
   131    70   129   1
@<TRIPOS>SUBSTRUCTURE
     1  DVA      2

