@<TRIPOS>MOLECULE
1zea_ligand_059
   129   131
SMALL
GAST_HUCK
****
This file was generated by PARSER (from files_GN.cpp)

@<TRIPOS>ATOM
      1 N          51.0664   49.8898   77.0729 N.4         1 DVA       0.2381
      2 CA         51.2369   51.3183   77.3997 C.3         1 DVA       0.0675
      3 CB         51.8843   52.1267   76.2150 C.3         1 DVA       0.0139
      4 CG1        53.1932   51.5057   75.6436 C.3         1 DVA      -0.0553
      5 CG2        50.8713   52.3650   75.0574 C.3         1 DVA      -0.0553
      6 C          51.9686   51.4528   78.6691 C.2         1 DVA       0.2295
      7 O          53.0648   50.9047   78.7078 O.2         1 DVA      -0.3905
      8 N          51.5531   52.1284   79.7608 N.am        1 DVA      -0.2471
      9 CA         50.2974   52.8322   79.9003 C.3         1 DVA       0.1339
     10 CB         50.5273   53.7870   81.0989 C.3         1 DVA      -0.0104
     11 CG         51.5594   53.0533   81.9592 C.3         1 DVA      -0.0281
     12 CD         52.3882   52.2766   80.9243 C.3         1 DVA       0.0371
     13 C          49.1383   51.9609   80.1126 C.2         1 DVA       0.2039
     14 O          49.2901   50.7911   80.4411 O.2         1 DVA      -0.3944
     15 N          47.9196   52.4605   79.9384 N.am        1 DVA      -0.2664
     16 CA         46.6768   51.7673   80.0976 C.3         1 DVA       0.1201
     17 C          46.2714   51.6317   81.4857 C.2         1 DVA       0.2008
     18 O          46.2794   52.6360   82.1872 O.2         1 DVA      -0.3947
     19 N          45.8369   50.4672   81.9618 N.am        1 DVA      -0.2618
     20 CA         45.3598   50.2296   83.2988 C.3         1 DVA       0.1539
     21 C          44.0294   50.7953   83.5088 C.2         1 DVA       0.2062
     22 O          43.1302   50.4265   82.7681 O.2         1 DVA      -0.3943
     23 CB         45.3832   48.7026   83.6055 C.3         1 DVA       0.0843
     24 OG         44.2995   47.9811   83.0199 O.3         1 DVA      -0.3903
     25 N          43.7828   51.6393   84.5041 N.am        1 DVA      -0.2635
     26 CA         42.4806   52.0490   84.9825 C.3         1 DVA       0.1330
     27 C          42.5438   52.6632   86.3069 C.2         1 DVA       0.2041
     28 O          43.6248   53.0095   86.7597 O.2         1 DVA      -0.3944
     29 CB         41.7017   52.9146   83.9438 C.3         1 DVA       0.0045
     30 CG         42.1556   54.3946   83.7956 C.3         1 DVA       0.0412
     31 CD         41.9714   55.1972   84.9941 C.2         1 DVA       0.1737
     32 OE1        42.8935   55.8385   85.4799 O.2         1 DVA      -0.3973
     33 NE2        40.7897   55.3080   85.5655 N.am        1 DVA      -0.3009
     34 N          41.4218   52.8775   86.9950 N.am        1 DVA      -0.2625
     35 CA         41.2423   53.4204   88.3209 C.3         1 DVA       0.1369
     36 C          41.3141   52.4047   89.3715 C.2         1 DVA       0.2055
     37 O          41.9843   51.3902   89.1983 O.2         1 DVA      -0.3942
     38 CB         42.1469   54.6617   88.6218 C.3         1 DVA       0.0145
     39 CG         41.5878   55.6230   89.5938 C.2         1 DVA      -0.0027
     40 ND1        42.2361   56.1162   90.6662 N.2         1 DVA      -0.3252
     41 CD2        40.3264   56.2094   89.5496 C.2         1 DVA       0.0291
     42 CE1        41.4017   56.9752   91.2739 C.2         1 DVA       0.0907
     43 NE2        40.2445   57.0369   90.5958 N.pl3       1 DVA      -0.2752
     44 N          40.6678   52.6077   90.5199 N.am        1 DVA      -0.2620
     45 CA         40.6304   51.7352   91.6683 C.3         1 DVA       0.1390
     46 C          41.6729   52.1659   92.6120 C.2         1 DVA       0.2058
     47 O          41.3668   52.5254   93.7386 O.2         1 DVA      -0.3942
     48 CB         39.1501   51.7018   92.2102 C.3         1 DVA       0.0163
     49 CG         38.7607   50.4305   92.8936 C.ar        1 DVA      -0.0493
     50 CD1        39.3470   50.0343   94.1213 C.ar        1 DVA      -0.0685
     51 CD2        37.7692   49.5896   92.3314 C.ar        1 DVA      -0.0685
     52 CE1        38.9830   48.8240   94.7430 C.ar        1 DVA      -0.0398
     53 CE2        37.4059   48.3809   92.9488 C.ar        1 DVA      -0.0398
     54 CZ         38.0208   47.9872   94.1498 C.ar        1 DVA       0.0805
     55 OH         37.6698   46.8138   94.7270 O.3         1 DVA      -0.3376
     56 N          42.9530   52.1021   92.2556 N.am        1 DVA      -0.2620
     57 CA         44.1405   52.3521   93.0344 C.3         1 DVA       0.1423
     58 C          45.2114   52.6265   92.0698 C.2         1 DVA       0.2051
     59 O          45.6059   53.7745   91.8829 O.2         1 DVA      -0.3943
     60 CB         43.9972   53.4790   94.1240 C.3         1 DVA       0.0406
     61 CG         43.5980   53.0064   95.4614 C.2         1 DVA       0.0393
     62 OD1        44.3713   52.1255   96.1319 O.co2       1 DVA      -0.5688
     63 OD2        42.5164   53.5213   96.0840 O.co2       1 DVA      -0.5688
     64 N          45.7166   51.6313   91.3459 N.am        1 DVA      -0.2671
     65 CA         46.7690   51.7193   90.3711 C.3         1 DVA       0.1173
     66 C          47.6580   50.5485   90.5237 C.2         1 DVA       0.0623
     67 O          47.1908   49.2901   90.3535 O.co2       1 DVA      -0.5665
     68 OXT        48.9648   50.7097   90.8357 O.co2       1 DVA      -0.5665
     69 CB         46.1533   51.8030   88.9532 C.3         1 DVA       0.0789
     70 OG         47.1548   51.8485   87.9378 O.3         1 DVA      -0.3910
     71 H1         50.6119   49.7940   76.1627 H           1 DVA       0.2015
     72 H2         50.4875   49.4388   77.7861 H           1 DVA       0.2015
     73 H3         51.9783   49.4259   77.0382 H           1 DVA       0.2015
     74 H4         50.2209   51.6876   77.5274 H           1 DVA       0.1101
     75 H5         52.1439   53.1198   76.5975 H           1 DVA       0.0376
     76 H6         53.5887   52.1286   74.8394 H           1 DVA       0.0236
     77 H7         53.0077   50.5073   75.2436 H           1 DVA       0.0236
     78 H8         53.9624   51.4377   76.4118 H           1 DVA       0.0236
     79 H9         49.9860   52.8871   75.4257 H           1 DVA       0.0236
     80 H10        50.5590   51.4190   74.6117 H           1 DVA       0.0236
     81 H11        51.3201   52.9833   74.2784 H           1 DVA       0.0236
     82 H12        50.1271   53.4514   79.0117 H           1 DVA       0.0802
     83 H13        49.6185   54.0132   81.6643 H           1 DVA       0.0313
     84 H14        50.9576   54.7298   80.7450 H           1 DVA       0.0313
     85 H15        51.0542   52.3596   82.6392 H           1 DVA       0.0287
     86 H16        52.1730   53.7466   82.5397 H           1 DVA       0.0287
     87 H17        53.2880   52.8431   80.6657 H           1 DVA       0.0524
     88 H18        52.6800   51.3043   81.3335 H           1 DVA       0.0524
     89 H19        47.8634   53.3801   79.6320 H           1 DVA       0.1881
     90 H20        46.7287   50.7976   79.5925 H           1 DVA       0.0763
     91 H21        45.9085   52.3540   79.5912 H           1 DVA       0.0763
     92 H22        45.8530   49.7056   81.3571 H           1 DVA       0.1884
     93 H23        46.0791   50.6854   83.9953 H           1 DVA       0.0823
     94 H24        45.3433   48.5379   84.6855 H           1 DVA       0.0606
     95 H25        46.3207   48.2763   83.2380 H           1 DVA       0.0606
     96 H26        44.4693   47.9973   82.0567 H           1 DVA       0.2097
     97 H27        44.5444   51.9029   85.0437 H           1 DVA       0.1883
     98 H28        41.8981   51.1370   85.1218 H           1 DVA       0.0801
     99 H29        40.6313   52.8780   84.1772 H           1 DVA       0.0337
    100 H30        41.7993   52.4501   82.9613 H           1 DVA       0.0337
    101 H31        41.5640   54.8645   83.0016 H           1 DVA       0.0504
    102 H32        43.1977   54.4201   83.4717 H           1 DVA       0.0504
    103 H33        40.6566   55.9079   86.3223 H           1 DVA       0.1814
    104 H34        40.0365   54.8067   85.2127 H           1 DVA       0.1814
    105 H35        40.6007   52.6039   86.5565 H           1 DVA       0.1885
    106 H36        40.2053   53.7644   88.3026 H           1 DVA       0.0817
    107 H37        42.3274   55.2085   87.6991 H           1 DVA       0.0420
    108 H38        43.1175   54.3235   89.0001 H           1 DVA       0.0420
    109 H39        39.5946   56.0469   88.8576 H           1 DVA       0.0729
    110 H40        41.6227   57.5098   92.1148 H           1 DVA       0.1199
    111 H41        39.4798   57.5972   90.8246 H           1 DVA       0.2361
    112 H42        40.1737   53.4385   90.5988 H           1 DVA       0.1885
    113 H43        40.8910   50.7238   91.3583 H           1 DVA       0.0821
    114 H44        38.4642   51.8660   91.3737 H           1 DVA       0.0453
    115 H45        38.9712   52.5383   92.8934 H           1 DVA       0.0453
    116 H46        40.0324   50.6298   94.5847 H           1 DVA       0.0530
    117 H47        37.3037   49.8516   91.4591 H           1 DVA       0.0530
    118 H48        39.4161   48.5552   95.6285 H           1 DVA       0.0525
    119 H49        36.6962   47.7806   92.5158 H           1 DVA       0.0525
    120 H50        38.3772   46.1829   94.4694 H           1 DVA       0.2458
    121 H51        43.1082   51.8164   91.3440 H           1 DVA       0.1884
    122 H52        44.4066   51.4174   93.5398 H           1 DVA       0.0819
    123 H53        43.2917   54.2328   93.7677 H           1 DVA       0.0478
    124 H54        44.9570   53.9821   94.2766 H           1 DVA       0.0478
    125 H55        45.3128   50.7575   91.4672 H           1 DVA       0.1876
    126 H56        47.3736   52.6212   90.5217 H           1 DVA       0.0749
    127 H57        45.5536   52.7115   88.8816 H           1 DVA       0.0599
    128 H58        45.5023   50.9460   88.7641 H           1 DVA       0.0599
    129 H59        47.6158   52.7054   88.0629 H           1 DVA       0.2096
@<TRIPOS>BOND
     1     1     2   1
     2     2     3   1
     3     2     6   1
     4     3     4   1
     5     3     5   1
     6     6     7   2
     7     6     8  am
     8     8     9   1
     9     8    12   1
    10     9    10   1
    11     9    13   1
    12    10    11   1
    13    11    12   1
    14    13    14   2
    15    13    15  am
    16    15    16   1
    17    16    17   1
    18    17    18   2
    19    17    19  am
    20    19    20   1
    21    20    21   1
    22    20    23   1
    23    21    22   2
    24    21    25  am
    25    23    24   1
    26    25    26   1
    27    26    27   1
    28    26    29   1
    29    27    28   2
    30    27    34  am
    31    29    30   1
    32    30    31   1
    33    31    32   2
    34    31    33  am
    35    34    35   1
    36    35    36   1
    37    35    38   1
    38    36    37   2
    39    36    44  am
    40    38    39   1
    41    39    40   1
    42    39    41   2
    43    40    42   2
    44    41    43   1
    45    42    43   1
    46    44    45   1
    47    45    46   1
    48    45    48   1
    49    46    47   2
    50    46    56  am
    51    48    49   1
    52    49    50  ar
    53    49    51  ar
    54    50    52  ar
    55    51    53  ar
    56    52    54  ar
    57    53    54  ar
    58    54    55   1
    59    56    57   1
    60    57    58   1
    61    57    60   1
    62    58    59   2
    63    58    64  am
    64    60    61   1
    65    61    62  ar
    66    61    63  ar
    67    64    65   1
    68    65    66   1
    69    65    69   1
    70    66    67  ar
    71    66    68  ar
    72    69    70   1
    73     1    71   1
    74     1    72   1
    75     1    73   1
    76     2    74   1
    77     3    75   1
    78     4    76   1
    79     4    77   1
    80     4    78   1
    81     5    79   1
    82     5    80   1
    83     5    81   1
    84     9    82   1
    85    10    83   1
    86    10    84   1
    87    11    85   1
    88    11    86   1
    89    12    87   1
    90    12    88   1
    91    15    89   1
    92    16    90   1
    93    16    91   1
    94    19    92   1
    95    20    93   1
    96    23    94   1
    97    23    95   1
    98    24    96   1
    99    25    97   1
   100    26    98   1
   101    29    99   1
   102    29   100   1
   103    30   101   1
   104    30   102   1
   105    33   103   1
   106    33   104   1
   107    34   105   1
   108    35   106   1
   109    38   107   1
   110    38   108   1
   111    41   109   1
   112    42   110   1
   113    43   111   1
   114    44   112   1
   115    45   113   1
   116    48   114   1
   117    48   115   1
   118    50   116   1
   119    51   117   1
   120    52   118   1
   121    53   119   1
   122    55   120   1
   123    56   121   1
   124    57   122   1
   125    60   123   1
   126    60   124   1
   127    64   125   1
   128    65   126   1
   129    69   127   1
   130    69   128   1
   131    70   129   1
@<TRIPOS>SUBSTRUCTURE
     1  DVA      2

