@<TRIPOS>MOLECULE
1zea_ligand_074
   129   131
SMALL
GAST_HUCK
****
This file was generated by PARSER (from files_GN.cpp)

@<TRIPOS>ATOM
      1 N          43.9954   55.2183   94.3863 N.4         1 DVA       0.2381
      2 CA         43.4925   56.3664   93.6107 C.3         1 DVA       0.0675
      3 CB         44.5578   56.9006   92.5805 C.3         1 DVA       0.0139
      4 CG1        45.9852   57.1218   93.1652 C.3         1 DVA      -0.0553
      5 CG2        44.6574   55.9814   91.3264 C.3         1 DVA      -0.0553
      6 C          42.9863   57.3937   94.5340 C.2         1 DVA       0.2295
      7 O          43.8170   57.8770   95.2943 O.2         1 DVA      -0.3905
      8 N          41.7136   57.8319   94.6257 N.am        1 DVA      -0.2471
      9 CA         40.5597   57.2755   93.9474 C.3         1 DVA       0.1339
     10 CB         39.3691   58.1962   94.3292 C.3         1 DVA      -0.0104
     11 CG         40.0341   59.4947   94.7930 C.3         1 DVA      -0.0281
     12 CD         41.3712   59.0117   95.3749 C.3         1 DVA       0.0371
     13 C          40.2298   55.8852   94.2536 C.2         1 DVA       0.2039
     14 O          40.8197   55.2855   95.1461 O.2         1 DVA      -0.3944
     15 N          39.2739   55.2943   93.5510 N.am        1 DVA      -0.2664
     16 CA         38.8239   53.9391   93.6382 C.3         1 DVA       0.1201
     17 C          39.4480   53.0970   92.6314 C.2         1 DVA       0.2008
     18 O          39.9046   52.0060   92.9625 O.2         1 DVA      -0.3947
     19 N          39.4858   53.5081   91.3739 N.am        1 DVA      -0.2618
     20 CA         39.9198   52.8098   90.1954 C.3         1 DVA       0.1539
     21 C          40.2168   53.8470   89.2140 C.2         1 DVA       0.2062
     22 O          39.3466   54.1619   88.4115 O.2         1 DVA      -0.3943
     23 CB         41.1045   51.8232   90.4307 C.3         1 DVA       0.0843
     24 OG         41.7569   51.4846   89.2074 O.3         1 DVA      -0.3903
     25 N          41.3627   54.5252   89.2739 N.am        1 DVA      -0.2635
     26 CA         41.7387   55.6986   88.5334 C.3         1 DVA       0.1330
     27 C          41.6234   55.4866   87.0930 C.2         1 DVA       0.2041
     28 O          40.6576   55.9476   86.4903 O.2         1 DVA      -0.3944
     29 CB         41.0038   56.9545   89.1003 C.3         1 DVA       0.0045
     30 CG         41.2839   58.2814   88.3159 C.3         1 DVA       0.0412
     31 CD         40.0811   58.8912   87.7840 C.2         1 DVA       0.1737
     32 OE1        39.7653   58.7409   86.6111 O.2         1 DVA      -0.3973
     33 NE2        39.2496   59.5360   88.5701 N.am        1 DVA      -0.3009
     34 N          42.5228   54.7420   86.4601 N.am        1 DVA      -0.2625
     35 CA         42.5251   54.4469   85.0499 C.3         1 DVA       0.1369
     36 C          43.9060   54.2149   84.6252 C.2         1 DVA       0.2055
     37 O          44.2451   53.1469   84.1298 O.2         1 DVA      -0.3942
     38 CB         41.4733   53.3119   84.7426 C.3         1 DVA       0.0145
     39 CG         40.5610   53.6715   83.6366 C.2         1 DVA      -0.0027
     40 ND1        40.9096   53.7714   82.3411 N.2         1 DVA      -0.3252
     41 CD2        39.2230   54.0410   83.7503 C.2         1 DVA       0.0291
     42 CE1        39.8167   54.1798   81.6719 C.2         1 DVA       0.0907
     43 NE2        38.7952   54.3560   82.5246 N.pl3       1 DVA      -0.2752
     44 N          44.7990   55.1808   84.8239 N.am        1 DVA      -0.2620
     45 CA         46.2333   55.1658   84.6565 C.3         1 DVA       0.1390
     46 C          46.8917   53.9133   85.0459 C.2         1 DVA       0.2058
     47 O          46.2707   53.1308   85.7638 O.2         1 DVA      -0.3942
     48 CB         46.6609   55.8465   83.3125 C.3         1 DVA       0.0163
     49 CG         46.8422   54.9622   82.1145 C.ar        1 DVA      -0.0493
     50 CD1        45.7342   54.4916   81.3800 C.ar        1 DVA      -0.0685
     51 CD2        48.1399   54.6030   81.6794 C.ar        1 DVA      -0.0685
     52 CE1        45.9068   53.5882   80.3184 C.ar        1 DVA      -0.0398
     53 CE2        48.3209   53.7086   80.6108 C.ar        1 DVA      -0.0398
     54 CZ         47.2013   53.1657   79.9485 C.ar        1 DVA       0.0805
     55 OH         47.3919   52.2268   78.9899 O.3         1 DVA      -0.3376
     56 N          48.1246   53.6219   84.6636 N.am        1 DVA      -0.2620
     57 CA         48.7810   52.3472   84.7543 C.3         1 DVA       0.1423
     58 C          48.2392   51.5370   83.6691 C.2         1 DVA       0.2051
     59 O          48.7170   51.6524   82.5447 O.2         1 DVA      -0.3943
     60 CB         50.3288   52.5282   84.6895 C.3         1 DVA       0.0406
     61 CG         50.8826   53.2627   85.8424 C.2         1 DVA       0.0393
     62 OD1        50.8219   52.7376   87.0859 O.co2       1 DVA      -0.5688
     63 OD2        51.4983   54.4559   85.6816 O.co2       1 DVA      -0.5688
     64 N          47.0935   50.8879   83.8462 N.am        1 DVA      -0.2671
     65 CA         46.2465   50.3708   82.8046 C.3         1 DVA       0.1173
     66 C          46.9971   49.5230   81.8566 C.2         1 DVA       0.0623
     67 O          47.3424   48.2580   82.1844 O.co2       1 DVA      -0.5665
     68 OXT        47.3818   50.0146   80.6559 O.co2       1 DVA      -0.5665
     69 CB         45.0478   49.6004   83.4194 C.3         1 DVA       0.0789
     70 OG         43.9655   49.4865   82.4946 O.3         1 DVA      -0.3910
     71 H1         44.3192   54.4875   93.7482 H           1 DVA       0.2015
     72 H2         43.2441   54.8445   94.9712 H           1 DVA       0.2015
     73 H3         44.7720   55.5155   94.9824 H           1 DVA       0.2015
     74 H4         42.6623   55.9737   93.0265 H           1 DVA       0.1101
     75 H5         44.2097   57.8734   92.2136 H           1 DVA       0.0376
     76 H6         46.4100   56.1807   93.5214 H           1 DVA       0.0236
     77 H7         45.9690   57.8314   93.9917 H           1 DVA       0.0236
     78 H8         46.6514   57.5292   92.4005 H           1 DVA       0.0236
     79 H9         44.9941   54.9801   91.6050 H           1 DVA       0.0236
     80 H10        45.3627   56.3950   90.6005 H           1 DVA       0.0236
     81 H11        43.6857   55.8997   90.8347 H           1 DVA       0.0236
     82 H12        40.7374   57.3693   92.8691 H           1 DVA       0.0802
     83 H13        38.7854   57.7920   95.1651 H           1 DVA       0.0313
     84 H14        38.7001   58.3685   93.4802 H           1 DVA       0.0313
     85 H15        39.4323   60.0225   95.5396 H           1 DVA       0.0287
     86 H16        40.2077   60.1524   93.9343 H           1 DVA       0.0287
     87 H17        42.1119   59.8116   95.2669 H           1 DVA       0.0524
     88 H18        41.2672   58.7572   96.4335 H           1 DVA       0.0524
     89 H19        38.8622   55.8187   92.8476 H           1 DVA       0.1881
     90 H20        37.7480   53.9508   93.4479 H           1 DVA       0.0763
     91 H21        38.9682   53.5265   94.6404 H           1 DVA       0.0763
     92 H22        39.0913   54.3810   91.2136 H           1 DVA       0.1884
     93 H23        39.0677   52.2198   89.8438 H           1 DVA       0.0823
     94 H24        40.7514   50.8931   90.8742 H           1 DVA       0.0606
     95 H25        41.8401   52.2640   91.1024 H           1 DVA       0.0606
     96 H26        42.1162   50.5807   89.3402 H           1 DVA       0.2097
     97 H27        42.0067   54.2263   89.9338 H           1 DVA       0.1883
     98 H28        42.7998   55.8603   88.7533 H           1 DVA       0.0801
     99 H29        41.3310   57.0957   90.1357 H           1 DVA       0.0337
    100 H30        39.9297   56.7408   89.1430 H           1 DVA       0.0337
    101 H31        41.9907   58.1007   87.5006 H           1 DVA       0.0504
    102 H32        41.7705   59.0019   88.9785 H           1 DVA       0.0504
    103 H33        38.4201   59.8875   88.2151 H           1 DVA       0.1814
    104 H34        39.4483   59.6449   89.5128 H           1 DVA       0.1814
    105 H35        43.2665   54.4098   86.9897 H           1 DVA       0.1885
    106 H36        42.2197   55.3631   84.5300 H           1 DVA       0.0817
    107 H37        40.8609   53.1130   85.6281 H           1 DVA       0.0420
    108 H38        41.9478   52.3601   84.4976 H           1 DVA       0.0420
    109 H39        38.6676   54.0970   84.6059 H           1 DVA       0.0729
    110 H40        39.7768   54.3396   80.6642 H           1 DVA       0.1199
    111 H41        37.9038   54.6700   82.2969 H           1 DVA       0.2361
    112 H42        44.4420   55.9955   85.2091 H           1 DVA       0.1885
    113 H43        46.5692   55.8598   85.4344 H           1 DVA       0.0821
    114 H44        47.5969   56.3886   83.5033 H           1 DVA       0.0453
    115 H45        45.9282   56.6185   83.0516 H           1 DVA       0.0453
    116 H46        44.7894   54.7932   81.6186 H           1 DVA       0.0530
    117 H47        48.9717   54.9521   82.1610 H           1 DVA       0.0530
    118 H48        45.0927   53.2228   79.8215 H           1 DVA       0.0525
    119 H49        49.2612   53.4178   80.3386 H           1 DVA       0.0525
    120 H50        46.8218   51.4673   79.2429 H           1 DVA       0.2458
    121 H51        48.5990   54.3021   84.1614 H           1 DVA       0.1884
    122 H52        48.5495   51.8610   85.7117 H           1 DVA       0.0819
    123 H53        50.5930   53.0609   83.7719 H           1 DVA       0.0478
    124 H54        50.8072   51.5479   84.6510 H           1 DVA       0.0478
    125 H55        46.7440   50.8490   84.7531 H           1 DVA       0.1876
    126 H56        45.8292   51.2256   82.2630 H           1 DVA       0.0749
    127 H57        44.6769   50.1432   84.2925 H           1 DVA       0.0599
    128 H58        45.3496   48.5999   83.7406 H           1 DVA       0.0599
    129 H59        44.3361   49.0193   81.7164 H           1 DVA       0.2096
@<TRIPOS>BOND
     1     1     2   1
     2     2     3   1
     3     2     6   1
     4     3     4   1
     5     3     5   1
     6     6     7   2
     7     6     8  am
     8     8     9   1
     9     8    12   1
    10     9    10   1
    11     9    13   1
    12    10    11   1
    13    11    12   1
    14    13    14   2
    15    13    15  am
    16    15    16   1
    17    16    17   1
    18    17    18   2
    19    17    19  am
    20    19    20   1
    21    20    21   1
    22    20    23   1
    23    21    22   2
    24    21    25  am
    25    23    24   1
    26    25    26   1
    27    26    27   1
    28    26    29   1
    29    27    28   2
    30    27    34  am
    31    29    30   1
    32    30    31   1
    33    31    32   2
    34    31    33  am
    35    34    35   1
    36    35    36   1
    37    35    38   1
    38    36    37   2
    39    36    44  am
    40    38    39   1
    41    39    40   1
    42    39    41   2
    43    40    42   2
    44    41    43   1
    45    42    43   1
    46    44    45   1
    47    45    46   1
    48    45    48   1
    49    46    47   2
    50    46    56  am
    51    48    49   1
    52    49    50  ar
    53    49    51  ar
    54    50    52  ar
    55    51    53  ar
    56    52    54  ar
    57    53    54  ar
    58    54    55   1
    59    56    57   1
    60    57    58   1
    61    57    60   1
    62    58    59   2
    63    58    64  am
    64    60    61   1
    65    61    62  ar
    66    61    63  ar
    67    64    65   1
    68    65    66   1
    69    65    69   1
    70    66    67  ar
    71    66    68  ar
    72    69    70   1
    73     1    71   1
    74     1    72   1
    75     1    73   1
    76     2    74   1
    77     3    75   1
    78     4    76   1
    79     4    77   1
    80     4    78   1
    81     5    79   1
    82     5    80   1
    83     5    81   1
    84     9    82   1
    85    10    83   1
    86    10    84   1
    87    11    85   1
    88    11    86   1
    89    12    87   1
    90    12    88   1
    91    15    89   1
    92    16    90   1
    93    16    91   1
    94    19    92   1
    95    20    93   1
    96    23    94   1
    97    23    95   1
    98    24    96   1
    99    25    97   1
   100    26    98   1
   101    29    99   1
   102    29   100   1
   103    30   101   1
   104    30   102   1
   105    33   103   1
   106    33   104   1
   107    34   105   1
   108    35   106   1
   109    38   107   1
   110    38   108   1
   111    41   109   1
   112    42   110   1
   113    43   111   1
   114    44   112   1
   115    45   113   1
   116    48   114   1
   117    48   115   1
   118    50   116   1
   119    51   117   1
   120    52   118   1
   121    53   119   1
   122    55   120   1
   123    56   121   1
   124    57   122   1
   125    60   123   1
   126    60   124   1
   127    64   125   1
   128    65   126   1
   129    69   127   1
   130    69   128   1
   131    70   129   1
@<TRIPOS>SUBSTRUCTURE
     1  DVA      2

