@<TRIPOS>MOLECULE
1zea_ligand_084
   129   131
SMALL
GAST_HUCK
****
This file was generated by PARSER (from files_GN.cpp)

@<TRIPOS>ATOM
      1 N          45.0115   59.5467   91.3481 N.4         1 DVA       0.2381
      2 CA         43.9311   60.1531   92.1436 C.3         1 DVA       0.0675
      3 CB         44.4129   61.4390   92.9052 C.3         1 DVA       0.0139
      4 CG1        43.3164   61.9960   93.8595 C.3         1 DVA      -0.0553
      5 CG2        45.7616   61.2971   93.6656 C.3         1 DVA      -0.0553
      6 C          43.3243   59.1196   92.9912 C.2         1 DVA       0.2295
      7 O          44.1046   58.5153   93.7222 O.2         1 DVA      -0.3905
      8 N          42.0217   58.7855   93.0210 N.am        1 DVA      -0.2471
      9 CA         40.9657   59.3667   92.2099 C.3         1 DVA       0.1339
     10 CB         39.6660   58.9195   92.9272 C.3         1 DVA      -0.0104
     11 CG         40.0327   57.5885   93.5848 C.3         1 DVA      -0.0281
     12 CD         41.5215   57.7715   93.9161 C.3         1 DVA       0.0371
     13 C          41.0171   58.9785   90.7983 C.2         1 DVA       0.2039
     14 O          41.9679   58.3332   90.3724 O.2         1 DVA      -0.3944
     15 N          40.0296   59.3259   89.9731 N.am        1 DVA      -0.2664
     16 CA         39.9312   59.0134   88.5729 C.3         1 DVA       0.1201
     17 C          39.9640   57.6086   88.1905 C.2         1 DVA       0.2008
     18 O          40.2824   57.3494   87.0250 O.2         1 DVA      -0.3947
     19 N          39.9043   56.6345   89.0906 N.am        1 DVA      -0.2618
     20 CA         40.1669   55.2292   88.9395 C.3         1 DVA       0.1539
     21 C          41.1753   54.9138   87.9280 C.2         1 DVA       0.2062
     22 O          42.2117   55.5675   87.9122 O.2         1 DVA      -0.3943
     23 CB         40.6132   54.6974   90.3300 C.3         1 DVA       0.0843
     24 OG         41.6727   55.4850   90.8741 O.3         1 DVA      -0.3903
     25 N          41.0042   53.8748   87.1039 N.am        1 DVA      -0.2635
     26 CA         41.9197   53.4436   86.0735 C.3         1 DVA       0.1330
     27 C          42.7879   52.3861   86.5853 C.2         1 DVA       0.2041
     28 O          43.2522   51.5225   85.8437 O.2         1 DVA      -0.3944
     29 CB         41.1358   53.0613   84.7689 C.3         1 DVA       0.0045
     30 CG         40.1551   54.1522   84.2473 C.3         1 DVA       0.0412
     31 CD         39.8217   53.9982   82.8377 C.2         1 DVA       0.1737
     32 OE1        38.6896   53.7189   82.4639 O.2         1 DVA      -0.3973
     33 NE2        40.7196   54.2442   81.9024 N.am        1 DVA      -0.3009
     34 N          43.1624   52.4061   87.8651 N.am        1 DVA      -0.2625
     35 CA         44.0393   51.4747   88.5282 C.3         1 DVA       0.1369
     36 C          45.3943   51.4323   87.9791 C.2         1 DVA       0.2055
     37 O          46.0767   50.4352   88.2220 O.2         1 DVA      -0.3942
     38 CB         44.0793   51.8357   90.0463 C.3         1 DVA       0.0145
     39 CG         42.7734   51.7911   90.7463 C.2         1 DVA      -0.0027
     40 ND1        42.5472   52.4222   91.9119 N.2         1 DVA      -0.3252
     41 CD2        41.6316   51.0583   90.4421 C.2         1 DVA       0.0291
     42 CE1        41.2956   52.1252   92.2957 C.2         1 DVA       0.0907
     43 NE2        40.7461   51.2694   91.4262 N.pl3       1 DVA      -0.2752
     44 N          45.8617   52.3952   87.1812 N.am        1 DVA      -0.2620
     45 CA         47.1608   52.4808   86.5728 C.3         1 DVA       0.1390
     46 C          48.0917   53.1199   87.4930 C.2         1 DVA       0.2058
     47 O          48.9846   52.4697   88.0266 O.2         1 DVA      -0.3942
     48 CB         47.6665   51.1287   85.9563 C.3         1 DVA       0.0163
     49 CG         46.6599   50.4516   85.1013 C.ar        1 DVA      -0.0493
     50 CD1        46.2304   51.0404   83.8902 C.ar        1 DVA      -0.0685
     51 CD2        46.1006   49.2032   85.4852 C.ar        1 DVA      -0.0685
     52 CE1        45.2845   50.4030   83.0730 C.ar        1 DVA      -0.0398
     53 CE2        45.1513   48.5598   84.6608 C.ar        1 DVA      -0.0398
     54 CZ         44.7486   49.1576   83.4532 C.ar        1 DVA       0.0805
     55 OH         43.8364   48.5462   82.6572 O.3         1 DVA      -0.3376
     56 N          47.9433   54.4223   87.7755 N.am        1 DVA      -0.2620
     57 CA         48.7840   55.2387   88.6140 C.3         1 DVA       0.1423
     58 C          48.7346   54.8677   90.0262 C.2         1 DVA       0.2051
     59 O          48.3414   53.7535   90.3652 O.2         1 DVA      -0.3943
     60 CB         50.2358   55.3071   88.0194 C.3         1 DVA       0.0406
     61 CG         51.0879   56.3720   88.5785 C.2         1 DVA       0.0393
     62 OD1        51.7924   56.1554   89.7143 O.co2       1 DVA      -0.5688
     63 OD2        51.4114   57.4503   87.8320 O.co2       1 DVA      -0.5688
     64 N          49.0776   55.7547   90.9571 N.am        1 DVA      -0.2671
     65 CA         49.1949   55.5643   92.3742 C.3         1 DVA       0.1173
     66 C          47.9626   55.0134   92.9855 C.2         1 DVA       0.0623
     67 O          47.9477   53.8381   93.6608 O.co2       1 DVA      -0.5665
     68 OXT        46.7993   55.6831   92.8590 O.co2       1 DVA      -0.5665
     69 CB         50.5057   54.8063   92.7498 C.3         1 DVA       0.0789
     70 OG         50.4710   53.4093   92.4559 O.3         1 DVA      -0.3910
     71 H1         45.4219   60.2504   90.7307 H           1 DVA       0.2015
     72 H2         44.6339   58.7842   90.7816 H           1 DVA       0.2015
     73 H3         45.7363   59.1747   91.9655 H           1 DVA       0.2015
     74 H4         43.2178   60.5039   91.4012 H           1 DVA       0.1101
     75 H5         44.5758   62.2090   92.1413 H           1 DVA       0.0376
     76 H6         43.6173   62.9676   94.2658 H           1 DVA       0.0236
     77 H7         43.1427   61.3121   94.6954 H           1 DVA       0.0236
     78 H8         42.3715   62.1280   93.3255 H           1 DVA       0.0236
     79 H9         46.5369   60.9001   93.0114 H           1 DVA       0.0236
     80 H10        45.6588   60.6387   94.5289 H           1 DVA       0.0236
     81 H11        46.0958   62.2762   94.0188 H           1 DVA       0.0236
     82 H12        41.0056   60.4597   92.2645 H           1 DVA       0.0802
     83 H13        38.8090   58.8042   92.2630 H           1 DVA       0.0313
     84 H14        39.4046   59.6442   93.7041 H           1 DVA       0.0313
     85 H15        39.8962   56.7680   92.8716 H           1 DVA       0.0287
     86 H16        39.4309   57.3935   94.4785 H           1 DVA       0.0287
     87 H17        41.6364   58.1048   94.9533 H           1 DVA       0.0524
     88 H18        42.0475   56.8197   93.7841 H           1 DVA       0.0524
     89 H19        39.3069   59.8502   90.3511 H           1 DVA       0.1881
     90 H20        40.7347   59.5452   88.0549 H           1 DVA       0.0763
     91 H21        38.9856   59.4353   88.2187 H           1 DVA       0.0763
     92 H22        39.6998   56.9236   89.9964 H           1 DVA       0.1884
     93 H23        39.2187   54.7440   88.6851 H           1 DVA       0.0823
     94 H24        40.9525   53.6527   90.2815 H           1 DVA       0.0606
     95 H25        39.7722   54.7410   91.0191 H           1 DVA       0.0606
     96 H26        41.8629   55.0830   91.7492 H           1 DVA       0.2097
     97 H27        40.1961   53.3454   87.2055 H           1 DVA       0.1883
     98 H28        42.5851   54.2653   85.7980 H           1 DVA       0.0801
     99 H29        40.5631   52.1429   84.9456 H           1 DVA       0.0337
    100 H30        41.8729   52.8517   83.9836 H           1 DVA       0.0337
    101 H31        40.5950   55.1421   84.3944 H           1 DVA       0.0504
    102 H32        39.2373   54.1107   84.8402 H           1 DVA       0.0504
    103 H33        40.4768   54.1808   80.9601 H           1 DVA       0.1814
    104 H34        41.6210   54.5174   82.1489 H           1 DVA       0.1814
    105 H35        42.7950   53.1197   88.4171 H           1 DVA       0.1885
    106 H36        43.6263   50.4631   88.4307 H           1 DVA       0.0817
    107 H37        44.5054   52.8360   90.1553 H           1 DVA       0.0420
    108 H38        44.7326   51.1365   90.5806 H           1 DVA       0.0420
    109 H39        41.4844   50.4312   89.6532 H           1 DVA       0.0729
    110 H40        40.8694   52.4079   93.1768 H           1 DVA       0.1199
    111 H41        39.8741   50.8561   91.5038 H           1 DVA       0.2361
    112 H42        45.2615   53.1342   86.9910 H           1 DVA       0.1885
    113 H43        47.0496   53.1663   85.7241 H           1 DVA       0.0821
    114 H44        47.9809   50.4610   86.7614 H           1 DVA       0.0453
    115 H45        48.5580   51.3157   85.3469 H           1 DVA       0.0453
    116 H46        46.6085   51.9423   83.5987 H           1 DVA       0.0530
    117 H47        46.3717   48.7576   86.3671 H           1 DVA       0.0530
    118 H48        44.9861   50.8417   82.2008 H           1 DVA       0.0525
    119 H49        44.7634   47.6512   84.9449 H           1 DVA       0.0525
    120 H50        44.3422   48.2627   81.8679 H           1 DVA       0.2458
    121 H51        47.2033   54.8738   87.3296 H           1 DVA       0.1884
    122 H52        48.3403   56.2369   88.5364 H           1 DVA       0.0819
    123 H53        50.1705   55.4750   86.9374 H           1 DVA       0.0478
    124 H54        50.7429   54.3484   88.1575 H           1 DVA       0.0478
    125 H55        49.2897   56.6452   90.6357 H           1 DVA       0.1876
    126 H56        49.3122   56.5657   92.8023 H           1 DVA       0.0749
    127 H57        50.6989   54.9138   93.8210 H           1 DVA       0.0599
    128 H58        51.3537   55.2479   92.2147 H           1 DVA       0.0599
    129 H59        50.4766   53.3519   91.4780 H           1 DVA       0.2096
@<TRIPOS>BOND
     1     1     2   1
     2     2     3   1
     3     2     6   1
     4     3     4   1
     5     3     5   1
     6     6     7   2
     7     6     8  am
     8     8     9   1
     9     8    12   1
    10     9    10   1
    11     9    13   1
    12    10    11   1
    13    11    12   1
    14    13    14   2
    15    13    15  am
    16    15    16   1
    17    16    17   1
    18    17    18   2
    19    17    19  am
    20    19    20   1
    21    20    21   1
    22    20    23   1
    23    21    22   2
    24    21    25  am
    25    23    24   1
    26    25    26   1
    27    26    27   1
    28    26    29   1
    29    27    28   2
    30    27    34  am
    31    29    30   1
    32    30    31   1
    33    31    32   2
    34    31    33  am
    35    34    35   1
    36    35    36   1
    37    35    38   1
    38    36    37   2
    39    36    44  am
    40    38    39   1
    41    39    40   1
    42    39    41   2
    43    40    42   2
    44    41    43   1
    45    42    43   1
    46    44    45   1
    47    45    46   1
    48    45    48   1
    49    46    47   2
    50    46    56  am
    51    48    49   1
    52    49    50  ar
    53    49    51  ar
    54    50    52  ar
    55    51    53  ar
    56    52    54  ar
    57    53    54  ar
    58    54    55   1
    59    56    57   1
    60    57    58   1
    61    57    60   1
    62    58    59   2
    63    58    64  am
    64    60    61   1
    65    61    62  ar
    66    61    63  ar
    67    64    65   1
    68    65    66   1
    69    65    69   1
    70    66    67  ar
    71    66    68  ar
    72    69    70   1
    73     1    71   1
    74     1    72   1
    75     1    73   1
    76     2    74   1
    77     3    75   1
    78     4    76   1
    79     4    77   1
    80     4    78   1
    81     5    79   1
    82     5    80   1
    83     5    81   1
    84     9    82   1
    85    10    83   1
    86    10    84   1
    87    11    85   1
    88    11    86   1
    89    12    87   1
    90    12    88   1
    91    15    89   1
    92    16    90   1
    93    16    91   1
    94    19    92   1
    95    20    93   1
    96    23    94   1
    97    23    95   1
    98    24    96   1
    99    25    97   1
   100    26    98   1
   101    29    99   1
   102    29   100   1
   103    30   101   1
   104    30   102   1
   105    33   103   1
   106    33   104   1
   107    34   105   1
   108    35   106   1
   109    38   107   1
   110    38   108   1
   111    41   109   1
   112    42   110   1
   113    43   111   1
   114    44   112   1
   115    45   113   1
   116    48   114   1
   117    48   115   1
   118    50   116   1
   119    51   117   1
   120    52   118   1
   121    53   119   1
   122    55   120   1
   123    56   121   1
   124    57   122   1
   125    60   123   1
   126    60   124   1
   127    64   125   1
   128    65   126   1
   129    69   127   1
   130    69   128   1
   131    70   129   1
@<TRIPOS>SUBSTRUCTURE
     1  DVA      2

