@<TRIPOS>MOLECULE
1zea_ligand_004
   129   131
SMALL
GAST_HUCK
****
This file was generated by PARSER (from files_GN.cpp)

@<TRIPOS>ATOM
      1 N          50.9739   49.9286   77.1262 N.4         1 DVA       0.2381
      2 CA         51.8307   51.0375   77.5928 C.3         1 DVA       0.0675
      3 CB         53.0207   51.3065   76.5970 C.3         1 DVA       0.0139
      4 CG1        52.5276   51.7820   75.2016 C.3         1 DVA      -0.0553
      5 CG2        54.0437   52.3337   77.1601 C.3         1 DVA      -0.0553
      6 C          52.2611   50.7301   78.9581 C.2         1 DVA       0.2295
      7 O          52.9628   49.7264   79.0689 O.2         1 DVA      -0.3905
      8 N          51.9856   51.4500   80.0657 N.am        1 DVA      -0.2471
      9 CA         51.1899   52.6499   80.1179 C.3         1 DVA       0.1339
     10 CB         51.5032   53.2877   81.4977 C.3         1 DVA      -0.0104
     11 CG         51.9711   52.1162   82.3651 C.3         1 DVA      -0.0281
     12 CD         52.5356   51.1096   81.3449 C.3         1 DVA       0.0371
     13 C          49.7601   52.3968   79.9365 C.2         1 DVA       0.2039
     14 O          49.1651   53.0282   79.0659 O.2         1 DVA      -0.3944
     15 N          49.1227   51.5017   80.6917 N.am        1 DVA      -0.2664
     16 CA         47.7157   51.2298   80.6715 C.3         1 DVA       0.1201
     17 C          47.2162   50.9989   82.0076 C.2         1 DVA       0.2008
     18 O          47.5113   51.8012   82.8877 O.2         1 DVA      -0.3947
     19 N          46.3949   49.9804   82.2453 N.am        1 DVA      -0.2618
     20 CA         45.8180   49.6086   83.5051 C.3         1 DVA       0.1539
     21 C          44.9764   50.6391   84.0934 C.2         1 DVA       0.2062
     22 O          45.2209   50.9762   85.2491 O.2         1 DVA      -0.3943
     23 CB         45.0280   48.2744   83.3675 C.3         1 DVA       0.0843
     24 OG         43.8343   48.4030   82.6009 O.3         1 DVA      -0.3903
     25 N          43.9702   51.1628   83.3910 N.am        1 DVA      -0.2635
     26 CA         42.9458   52.1151   83.7634 C.3         1 DVA       0.1330
     27 C          43.1627   52.8180   85.0200 C.2         1 DVA       0.2041
     28 O          43.6754   53.9329   84.9970 O.2         1 DVA      -0.3944
     29 CB         42.6814   53.0576   82.5489 C.3         1 DVA       0.0045
     30 CG         41.7954   54.3269   82.7662 C.3         1 DVA       0.0412
     31 CD         40.8114   54.2606   83.8289 C.2         1 DVA       0.1737
     32 OE1        40.8977   55.0038   84.7968 O.2         1 DVA      -0.3973
     33 NE2        39.7869   53.4358   83.7902 N.am        1 DVA      -0.3009
     34 N          42.9773   52.1562   86.1606 N.am        1 DVA      -0.2625
     35 CA         43.3621   52.5513   87.4864 C.3         1 DVA       0.1369
     36 C          42.2825   53.3044   88.1281 C.2         1 DVA       0.2055
     37 O          41.3679   53.7890   87.4722 O.2         1 DVA      -0.3942
     38 CB         43.7343   51.2313   88.2457 C.3         1 DVA       0.0145
     39 CG         44.8016   51.4004   89.2500 C.2         1 DVA      -0.0027
     40 ND1        44.6424   51.4401   90.5834 N.2         1 DVA      -0.3252
     41 CD2        46.1694   51.4839   88.9872 C.2         1 DVA       0.0291
     42 CE1        45.8639   51.5490   91.1292 C.2         1 DVA       0.0907
     43 NE2        46.7936   51.5693   90.1608 N.pl3       1 DVA      -0.2752
     44 N          42.2722   53.4421   89.4517 N.am        1 DVA      -0.2620
     45 CA         41.1843   53.8891   90.2861 C.3         1 DVA       0.1390
     46 C          40.8217   55.2925   90.0378 C.2         1 DVA       0.2058
     47 O          40.4377   55.6492   88.9226 O.2         1 DVA      -0.3942
     48 CB         39.9518   52.9054   90.2193 C.3         1 DVA       0.0163
     49 CG         39.5000   52.3769   91.5332 C.ar        1 DVA      -0.0493
     50 CD1        38.1567   52.5046   91.9602 C.ar        1 DVA      -0.0685
     51 CD2        40.4097   51.6807   92.3651 C.ar        1 DVA      -0.0685
     52 CE1        37.7377   51.9602   93.1926 C.ar        1 DVA      -0.0398
     53 CE2        39.9979   51.1571   93.6003 C.ar        1 DVA      -0.0398
     54 CZ         38.6625   51.2979   94.0205 C.ar        1 DVA       0.0805
     55 OH         38.2509   50.8029   95.2105 O.3         1 DVA      -0.3376
     56 N          40.8685   56.1831   91.0335 N.am        1 DVA      -0.2620
     57 CA         40.5617   57.5865   90.9502 C.3         1 DVA       0.1423
     58 C          40.5162   58.1953   92.2822 C.2         1 DVA       0.2051
     59 O          41.2884   57.8160   93.1590 O.2         1 DVA      -0.3943
     60 CB         41.5543   58.3427   90.0092 C.3         1 DVA       0.0406
     61 CG         42.9771   58.2367   90.3998 C.2         1 DVA       0.0393
     62 OD1        43.4907   59.0013   91.3943 O.co2       1 DVA      -0.5688
     63 OD2        43.7900   57.3700   89.7655 O.co2       1 DVA      -0.5688
     64 N          39.7126   59.2354   92.5059 N.am        1 DVA      -0.2671
     65 CA         39.7229   60.0693   93.6775 C.3         1 DVA       0.1173
     66 C          41.0881   60.5817   93.9120 C.2         1 DVA       0.0623
     67 O          41.5496   61.6613   93.2497 O.co2       1 DVA      -0.5665
     68 OXT        41.9285   59.9458   94.7601 O.co2       1 DVA      -0.5665
     69 CB         38.7201   61.2462   93.5595 C.3         1 DVA       0.0789
     70 OG         37.3952   60.8102   93.8595 O.3         1 DVA      -0.3910
     71 H1         50.5783   50.1519   76.2116 H           1 DVA       0.2015
     72 H2         50.2176   49.7647   77.7950 H           1 DVA       0.2015
     73 H3         51.5221   49.0755   77.0418 H           1 DVA       0.2015
     74 H4         51.1916   51.9251   77.5695 H           1 DVA       0.1101
     75 H5         53.5555   50.3650   76.4471 H           1 DVA       0.0376
     76 H6         53.3740   51.9482   74.5336 H           1 DVA       0.0236
     77 H7         51.9650   52.7147   75.2870 H           1 DVA       0.0236
     78 H8         51.8879   51.0310   74.7385 H           1 DVA       0.0236
     79 H9         54.5094   51.9603   78.0738 H           1 DVA       0.0236
     80 H10        53.5529   53.2870   77.3835 H           1 DVA       0.0236
     81 H11        54.8443   52.5198   76.4362 H           1 DVA       0.0236
     82 H12        51.5428   53.3566   79.3613 H           1 DVA       0.0802
     83 H13        50.6481   53.8059   81.9442 H           1 DVA       0.0313
     84 H14        52.3218   54.0065   81.3947 H           1 DVA       0.0313
     85 H15        51.1214   51.6871   82.9015 H           1 DVA       0.0287
     86 H16        52.7287   52.4294   83.0910 H           1 DVA       0.0287
     87 H17        53.6281   51.1868   81.3125 H           1 DVA       0.0524
     88 H18        52.2584   50.0918   81.6375 H           1 DVA       0.0524
     89 H19        49.6574   50.9828   81.3133 H           1 DVA       0.1881
     90 H20        47.5595   50.3487   80.0373 H           1 DVA       0.0763
     91 H21        47.1420   52.0559   80.2314 H           1 DVA       0.0763
     92 H22        46.1892   49.4150   81.4851 H           1 DVA       0.1884
     93 H23        46.6622   49.3926   84.1759 H           1 DVA       0.0823
     94 H24        44.7544   47.9036   84.3534 H           1 DVA       0.0606
     95 H25        45.6509   47.5272   82.8841 H           1 DVA       0.0606
     96 H26        44.1359   48.5326   81.6764 H           1 DVA       0.2097
     97 H27        43.8861   50.8135   82.4849 H           1 DVA       0.1883
     98 H28        42.0330   51.5032   83.8594 H           1 DVA       0.0801
     99 H29        42.2131   52.4562   81.7564 H           1 DVA       0.0337
    100 H30        43.6411   53.3883   82.1537 H           1 DVA       0.0337
    101 H31        41.2695   54.5424   81.8325 H           1 DVA       0.0504
    102 H32        42.4695   55.1666   82.9461 H           1 DVA       0.0504
    103 H33        39.1838   53.3911   84.5477 H           1 DVA       0.1814
    104 H34        39.6676   52.8424   83.0325 H           1 DVA       0.1814
    105 H35        42.5831   51.2651   86.0851 H           1 DVA       0.1885
    106 H36        44.2249   53.2165   87.4458 H           1 DVA       0.0817
    107 H37        44.0883   50.4609   87.5498 H           1 DVA       0.0420
    108 H38        42.8437   50.8169   88.7307 H           1 DVA       0.0420
    109 H39        46.6141   51.4645   88.0674 H           1 DVA       0.0729
    110 H40        46.0631   51.5950   92.1294 H           1 DVA       0.1199
    111 H41        47.7519   51.6268   90.2923 H           1 DVA       0.2361
    112 H42        43.0416   53.0920   89.9248 H           1 DVA       0.1885
    113 H43        41.5960   53.8282   91.2894 H           1 DVA       0.0821
    114 H44        40.1939   52.0273   89.6115 H           1 DVA       0.0453
    115 H45        39.1096   53.3901   89.7009 H           1 DVA       0.0453
    116 H46        37.4741   52.9899   91.3740 H           1 DVA       0.0530
    117 H47        41.3848   51.5497   92.0632 H           1 DVA       0.0530
    118 H48        36.7656   52.0514   93.4770 H           1 DVA       0.0525
    119 H49        40.6758   50.6750   94.1976 H           1 DVA       0.0525
    120 H50        38.2418   51.5633   95.8326 H           1 DVA       0.2458
    121 H51        41.1374   55.8455   91.9066 H           1 DVA       0.1884
    122 H52        39.5561   57.6832   90.5311 H           1 DVA       0.0819
    123 H53        41.2903   59.4106   89.9674 H           1 DVA       0.0478
    124 H54        41.4416   57.9325   88.9985 H           1 DVA       0.0478
    125 H55        39.0852   59.4640   91.8035 H           1 DVA       0.1876
    126 H56        39.4175   59.4681   94.5382 H           1 DVA       0.0749
    127 H57        38.7289   61.6687   92.5476 H           1 DVA       0.0599
    128 H58        38.9864   62.0396   94.2701 H           1 DVA       0.0599
    129 H59        37.4494   60.5259   94.8000 H           1 DVA       0.2096
@<TRIPOS>BOND
     1     1     2   1
     2     2     3   1
     3     2     6   1
     4     3     4   1
     5     3     5   1
     6     6     7   2
     7     6     8  am
     8     8     9   1
     9     8    12   1
    10     9    10   1
    11     9    13   1
    12    10    11   1
    13    11    12   1
    14    13    14   2
    15    13    15  am
    16    15    16   1
    17    16    17   1
    18    17    18   2
    19    17    19  am
    20    19    20   1
    21    20    21   1
    22    20    23   1
    23    21    22   2
    24    21    25  am
    25    23    24   1
    26    25    26   1
    27    26    27   1
    28    26    29   1
    29    27    28   2
    30    27    34  am
    31    29    30   1
    32    30    31   1
    33    31    32   2
    34    31    33  am
    35    34    35   1
    36    35    36   1
    37    35    38   1
    38    36    37   2
    39    36    44  am
    40    38    39   1
    41    39    40   1
    42    39    41   2
    43    40    42   2
    44    41    43   1
    45    42    43   1
    46    44    45   1
    47    45    46   1
    48    45    48   1
    49    46    47   2
    50    46    56  am
    51    48    49   1
    52    49    50  ar
    53    49    51  ar
    54    50    52  ar
    55    51    53  ar
    56    52    54  ar
    57    53    54  ar
    58    54    55   1
    59    56    57   1
    60    57    58   1
    61    57    60   1
    62    58    59   2
    63    58    64  am
    64    60    61   1
    65    61    62  ar
    66    61    63  ar
    67    64    65   1
    68    65    66   1
    69    65    69   1
    70    66    67  ar
    71    66    68  ar
    72    69    70   1
    73     1    71   1
    74     1    72   1
    75     1    73   1
    76     2    74   1
    77     3    75   1
    78     4    76   1
    79     4    77   1
    80     4    78   1
    81     5    79   1
    82     5    80   1
    83     5    81   1
    84     9    82   1
    85    10    83   1
    86    10    84   1
    87    11    85   1
    88    11    86   1
    89    12    87   1
    90    12    88   1
    91    15    89   1
    92    16    90   1
    93    16    91   1
    94    19    92   1
    95    20    93   1
    96    23    94   1
    97    23    95   1
    98    24    96   1
    99    25    97   1
   100    26    98   1
   101    29    99   1
   102    29   100   1
   103    30   101   1
   104    30   102   1
   105    33   103   1
   106    33   104   1
   107    34   105   1
   108    35   106   1
   109    38   107   1
   110    38   108   1
   111    41   109   1
   112    42   110   1
   113    43   111   1
   114    44   112   1
   115    45   113   1
   116    48   114   1
   117    48   115   1
   118    50   116   1
   119    51   117   1
   120    52   118   1
   121    53   119   1
   122    55   120   1
   123    56   121   1
   124    57   122   1
   125    60   123   1
   126    60   124   1
   127    64   125   1
   128    65   126   1
   129    69   127   1
   130    69   128   1
   131    70   129   1
@<TRIPOS>SUBSTRUCTURE
     1  DVA      2

