@<TRIPOS>MOLECULE
1zea_ligand_085
   129   131
SMALL
GAST_HUCK
****
This file was generated by PARSER (from files_GN.cpp)

@<TRIPOS>ATOM
      1 N          44.5195   59.7271   95.4422 N.4         1 DVA       0.2381
      2 CA         43.6113   60.8399   95.1150 C.3         1 DVA       0.0675
      3 CB         44.3810   62.1605   94.7392 C.3         1 DVA       0.0139
      4 CG1        45.5003   62.5686   95.7462 C.3         1 DVA      -0.0553
      5 CG2        44.9751   62.1002   93.3029 C.3         1 DVA      -0.0553
      6 C          42.6336   61.0202   96.2009 C.2         1 DVA       0.2295
      7 O          42.9900   60.6230   97.3075 O.2         1 DVA      -0.3905
      8 N          41.4113   61.5712   96.0816 N.am        1 DVA      -0.2471
      9 CA         40.8066   62.0445   94.8578 C.3         1 DVA       0.1339
     10 CB         39.6124   62.9113   95.3199 C.3         1 DVA      -0.0104
     11 CG         39.2173   62.3147   96.6747 C.3         1 DVA      -0.0281
     12 CD         40.5489   61.7704   97.2204 C.3         1 DVA       0.0371
     13 C          40.3876   60.9593   93.9761 C.2         1 DVA       0.2039
     14 O          40.6688   61.0518   92.7855 O.2         1 DVA      -0.3944
     15 N          39.6782   59.9338   94.4411 N.am        1 DVA      -0.2664
     16 CA         39.0721   58.8844   93.6796 C.3         1 DVA       0.1201
     17 C          39.9677   58.2537   92.7254 C.2         1 DVA       0.2008
     18 O          40.7735   57.4163   93.1211 O.2         1 DVA      -0.3947
     19 N          39.9777   58.6801   91.4688 N.am        1 DVA      -0.2618
     20 CA         40.8492   58.2989   90.3848 C.3         1 DVA       0.1539
     21 C          42.2892   58.3497   90.6634 C.2         1 DVA       0.2062
     22 O          42.6699   58.5427   91.8131 O.2         1 DVA      -0.3943
     23 CB         40.4027   56.9322   89.8090 C.3         1 DVA       0.0843
     24 OG         41.1413   56.6014   88.6373 O.3         1 DVA      -0.3903
     25 N          43.1618   58.2093   89.6669 N.am        1 DVA      -0.2635
     26 CA         44.6003   58.1359   89.7652 C.3         1 DVA       0.1330
     27 C          45.0761   57.0055   88.9691 C.2         1 DVA       0.2041
     28 O          45.6742   56.0942   89.5333 O.2         1 DVA      -0.3944
     29 CB         45.2519   59.4784   89.3184 C.3         1 DVA       0.0045
     30 CG         44.7821   60.7263   90.1304 C.3         1 DVA       0.0412
     31 CD         44.5817   61.9137   89.3187 C.2         1 DVA       0.1737
     32 OE1        45.5306   62.6456   89.0327 O.2         1 DVA      -0.3973
     33 NE2        43.4091   62.2070   88.8108 N.am        1 DVA      -0.3009
     34 N          44.9111   56.9723   87.6524 N.am        1 DVA      -0.2625
     35 CA         45.3711   55.9464   86.7481 C.3         1 DVA       0.1369
     36 C          44.3621   54.8975   86.6616 C.2         1 DVA       0.2055
     37 O          43.2319   55.2016   86.3095 O.2         1 DVA      -0.3942
     38 CB         45.6937   56.5308   85.3371 C.3         1 DVA       0.0145
     39 CG         46.7880   57.5246   85.3625 C.2         1 DVA      -0.0027
     40 ND1        48.0617   57.2862   84.9981 N.2         1 DVA      -0.3252
     41 CD2        46.7038   58.8575   85.7568 C.2         1 DVA       0.0291
     42 CE1        48.7427   58.4285   85.1653 C.2         1 DVA       0.0907
     43 NE2        47.9236   59.3875   85.6259 N.pl3       1 DVA      -0.2752
     44 N          44.6531   53.6623   87.0611 N.am        1 DVA      -0.2620
     45 CA         43.7238   52.5804   87.2521 C.3         1 DVA       0.1390
     46 C          44.2733   51.3644   86.6530 C.2         1 DVA       0.2058
     47 O          43.7443   50.9170   85.6399 O.2         1 DVA      -0.3942
     48 CB         43.4154   52.4501   88.7915 C.3         1 DVA       0.0163
     49 CG         41.9765   52.4337   89.1856 C.ar        1 DVA      -0.0493
     50 CD1        41.5429   51.7296   90.3378 C.ar        1 DVA      -0.0685
     51 CD2        41.0381   53.2481   88.5082 C.ar        1 DVA      -0.0685
     52 CE1        40.2253   51.8752   90.8174 C.ar        1 DVA      -0.0398
     53 CE2        39.7157   53.3689   88.9638 C.ar        1 DVA      -0.0398
     54 CZ         39.3092   52.6999   90.1340 C.ar        1 DVA       0.0805
     55 OH         38.0493   52.8661   90.6200 O.3         1 DVA      -0.3376
     56 N          45.3361   50.7650   87.1880 N.am        1 DVA      -0.2620
     57 CA         45.9831   49.5344   86.8020 C.3         1 DVA       0.1423
     58 C          45.7699   49.1412   85.4115 C.2         1 DVA       0.2051
     59 O          45.1862   48.0821   85.1978 O.2         1 DVA      -0.3943
     60 CB         47.5142   49.6207   87.1076 C.3         1 DVA       0.0406
     61 CG         47.8851   49.9382   88.5012 C.2         1 DVA       0.0393
     62 OD1        47.0341   49.8043   89.5471 O.co2       1 DVA      -0.5688
     63 OD2        49.1338   50.3959   88.7547 O.co2       1 DVA      -0.5688
     64 N          46.1428   49.9155   84.4016 N.am        1 DVA      -0.2671
     65 CA         45.9317   49.6386   83.0096 C.3         1 DVA       0.1173
     66 C          44.4846   49.5484   82.7133 C.2         1 DVA       0.0623
     67 O          43.8399   48.3650   82.8308 O.co2       1 DVA      -0.5665
     68 OXT        43.7472   50.6446   82.4397 O.co2       1 DVA      -0.5665
     69 CB         46.6380   50.7025   82.1309 C.3         1 DVA       0.0789
     70 OG         46.2848   50.5946   80.7526 O.3         1 DVA      -0.3910
     71 H1         45.1774   59.5793   94.6727 H           1 DVA       0.2015
     72 H2         43.9761   58.8743   95.5839 H           1 DVA       0.2015
     73 H3         45.0408   59.9403   96.2946 H           1 DVA       0.2015
     74 H4         43.0964   60.5097   94.2136 H           1 DVA       0.1101
     75 H5         43.6500   62.9767   94.7277 H           1 DVA       0.0376
     76 H6         45.9649   63.5036   95.4342 H           1 DVA       0.0236
     77 H7         46.2726   61.7989   95.7958 H           1 DVA       0.0236
     78 H8         45.0921   62.7218   96.7423 H           1 DVA       0.0236
     79 H9         44.1827   61.9191   92.5742 H           1 DVA       0.0236
     80 H10        45.7145   61.3001   93.2238 H           1 DVA       0.0236
     81 H11        45.4560   63.0449   93.0439 H           1 DVA       0.0236
     82 H12        41.5051   62.7143   94.3419 H           1 DVA       0.0802
     83 H13        38.7761   62.9112   94.6144 H           1 DVA       0.0313
     84 H14        39.9382   63.9479   95.4632 H           1 DVA       0.0313
     85 H15        38.5000   61.4983   96.5299 H           1 DVA       0.0287
     86 H16        38.7741   63.0661   97.3353 H           1 DVA       0.0287
     87 H17        40.9969   62.4996   97.9038 H           1 DVA       0.0524
     88 H18        40.3694   60.8346   97.7603 H           1 DVA       0.0524
     89 H19        39.5024   59.9234   95.3923 H           1 DVA       0.1881
     90 H20        38.1909   59.2887   93.1784 H           1 DVA       0.0763
     91 H21        38.7133   58.1300   94.3834 H           1 DVA       0.0763
     92 H22        39.2948   59.3372   91.2501 H           1 DVA       0.1884
     93 H23        40.6500   59.0468   89.6113 H           1 DVA       0.0823
     94 H24        39.3460   56.9568   89.5284 H           1 DVA       0.0606
     95 H25        40.5418   56.1471   90.5554 H           1 DVA       0.0606
     96 H26        40.7725   57.1705   87.9295 H           1 DVA       0.2097
     97 H27        42.7939   58.1095   88.7718 H           1 DVA       0.1883
     98 H28        44.9094   57.9640   90.8036 H           1 DVA       0.0801
     99 H29        45.0672   59.6280   88.2492 H           1 DVA       0.0337
    100 H30        46.3355   59.3907   89.4393 H           1 DVA       0.0337
    101 H31        45.5244   60.9461   90.9097 H           1 DVA       0.0504
    102 H32        43.8451   60.5307   90.6616 H           1 DVA       0.0504
    103 H33        43.3090   62.9824   88.2303 H           1 DVA       0.1814
    104 H34        42.6351   61.6495   89.0015 H           1 DVA       0.1814
    105 H35        44.4467   57.7257   87.2547 H           1 DVA       0.1885
    106 H36        46.3137   55.5352   87.1300 H           1 DVA       0.0817
    107 H37        44.8084   56.9985   84.8950 H           1 DVA       0.0420
    108 H38        45.9955   55.7106   84.6734 H           1 DVA       0.0420
    109 H39        45.8662   59.3465   86.0729 H           1 DVA       0.0729
    110 H40        49.7363   58.5509   84.9718 H           1 DVA       0.1199
    111 H41        48.1687   60.3014   85.8166 H           1 DVA       0.2361
    112 H42        45.5632   53.5077   87.3589 H           1 DVA       0.1885
    113 H43        42.7882   52.8122   86.7306 H           1 DVA       0.0821
    114 H44        43.8339   53.3103   89.3228 H           1 DVA       0.0453
    115 H45        43.9325   51.5779   89.2007 H           1 DVA       0.0453
    116 H46        42.1972   51.1514   90.8634 H           1 DVA       0.0530
    117 H47        41.3274   53.7819   87.6865 H           1 DVA       0.0530
    118 H48        39.9404   51.3967   91.6796 H           1 DVA       0.0525
    119 H49        39.0508   53.9721   88.4633 H           1 DVA       0.0525
    120 H50        37.9378   53.8383   90.7102 H           1 DVA       0.2458
    121 H51        45.6979   51.1914   87.9803 H           1 DVA       0.1884
    122 H52        45.5768   48.7545   87.4568 H           1 DVA       0.0819
    123 H53        47.9560   50.3911   86.4646 H           1 DVA       0.0478
    124 H54        47.9916   48.6683   86.8592 H           1 DVA       0.0478
    125 H55        46.6050   50.7428   84.6230 H           1 DVA       0.1876
    126 H56        46.4039   48.6769   82.7774 H           1 DVA       0.0749
    127 H57        47.7217   50.5867   82.2116 H           1 DVA       0.0599
    128 H58        46.3792   51.7099   82.4722 H           1 DVA       0.0599
    129 H59        46.0549   49.6517   80.6202 H           1 DVA       0.2096
@<TRIPOS>BOND
     1     1     2   1
     2     2     3   1
     3     2     6   1
     4     3     4   1
     5     3     5   1
     6     6     7   2
     7     6     8  am
     8     8     9   1
     9     8    12   1
    10     9    10   1
    11     9    13   1
    12    10    11   1
    13    11    12   1
    14    13    14   2
    15    13    15  am
    16    15    16   1
    17    16    17   1
    18    17    18   2
    19    17    19  am
    20    19    20   1
    21    20    21   1
    22    20    23   1
    23    21    22   2
    24    21    25  am
    25    23    24   1
    26    25    26   1
    27    26    27   1
    28    26    29   1
    29    27    28   2
    30    27    34  am
    31    29    30   1
    32    30    31   1
    33    31    32   2
    34    31    33  am
    35    34    35   1
    36    35    36   1
    37    35    38   1
    38    36    37   2
    39    36    44  am
    40    38    39   1
    41    39    40   1
    42    39    41   2
    43    40    42   2
    44    41    43   1
    45    42    43   1
    46    44    45   1
    47    45    46   1
    48    45    48   1
    49    46    47   2
    50    46    56  am
    51    48    49   1
    52    49    50  ar
    53    49    51  ar
    54    50    52  ar
    55    51    53  ar
    56    52    54  ar
    57    53    54  ar
    58    54    55   1
    59    56    57   1
    60    57    58   1
    61    57    60   1
    62    58    59   2
    63    58    64  am
    64    60    61   1
    65    61    62  ar
    66    61    63  ar
    67    64    65   1
    68    65    66   1
    69    65    69   1
    70    66    67  ar
    71    66    68  ar
    72    69    70   1
    73     1    71   1
    74     1    72   1
    75     1    73   1
    76     2    74   1
    77     3    75   1
    78     4    76   1
    79     4    77   1
    80     4    78   1
    81     5    79   1
    82     5    80   1
    83     5    81   1
    84     9    82   1
    85    10    83   1
    86    10    84   1
    87    11    85   1
    88    11    86   1
    89    12    87   1
    90    12    88   1
    91    15    89   1
    92    16    90   1
    93    16    91   1
    94    19    92   1
    95    20    93   1
    96    23    94   1
    97    23    95   1
    98    24    96   1
    99    25    97   1
   100    26    98   1
   101    29    99   1
   102    29   100   1
   103    30   101   1
   104    30   102   1
   105    33   103   1
   106    33   104   1
   107    34   105   1
   108    35   106   1
   109    38   107   1
   110    38   108   1
   111    41   109   1
   112    42   110   1
   113    43   111   1
   114    44   112   1
   115    45   113   1
   116    48   114   1
   117    48   115   1
   118    50   116   1
   119    51   117   1
   120    52   118   1
   121    53   119   1
   122    55   120   1
   123    56   121   1
   124    57   122   1
   125    60   123   1
   126    60   124   1
   127    64   125   1
   128    65   126   1
   129    69   127   1
   130    69   128   1
   131    70   129   1
@<TRIPOS>SUBSTRUCTURE
     1  DVA      2

