@<TRIPOS>MOLECULE
1zea_ligand_036
   129   131
SMALL
GAST_HUCK
****
This file was generated by PARSER (from files_GN.cpp)

@<TRIPOS>ATOM
      1 N          50.4739   54.5076   80.7781 N.4         1 DVA       0.2381
      2 CA         51.3181   53.3120   80.9517 C.3         1 DVA       0.0675
      3 CB         52.2129   53.4399   82.2354 C.3         1 DVA       0.0139
      4 CG1        52.8653   52.0822   82.6215 C.3         1 DVA      -0.0553
      5 CG2        53.2894   54.5623   82.1910 C.3         1 DVA      -0.0553
      6 C          52.0519   53.0327   79.7065 C.2         1 DVA       0.2295
      7 O          52.7688   53.9461   79.3081 O.2         1 DVA      -0.3905
      8 N          52.0247   51.8828   79.0005 N.am        1 DVA      -0.2471
      9 CA         51.1628   50.7467   79.2385 C.3         1 DVA       0.1339
     10 CB         51.6756   49.6220   78.2941 C.3         1 DVA      -0.0104
     11 CG         53.0628   50.0942   77.8528 C.3         1 DVA      -0.0281
     12 CD         52.9562   51.6224   77.9361 C.3         1 DVA       0.0371
     13 C          49.7413   51.0297   79.0051 C.2         1 DVA       0.2039
     14 O          49.3767   51.3168   77.8685 O.2         1 DVA      -0.3944
     15 N          48.8802   50.9800   80.0145 N.am        1 DVA      -0.2664
     16 CA         47.4710   51.2127   79.9245 C.3         1 DVA       0.1201
     17 C          46.9045   51.2800   81.2607 C.2         1 DVA       0.2008
     18 O          47.3009   52.1741   82.0001 O.2         1 DVA      -0.3947
     19 N          46.0109   50.3859   81.6813 N.am        1 DVA      -0.2618
     20 CA         45.4926   50.2751   83.0209 C.3         1 DVA       0.1539
     21 C          44.2232   50.9891   83.1418 C.2         1 DVA       0.2062
     22 O          43.2251   50.5178   82.6089 O.2         1 DVA      -0.3943
     23 CB         45.4009   48.7878   83.4641 C.3         1 DVA       0.0843
     24 OG         44.2761   48.0984   82.9224 O.3         1 DVA      -0.3903
     25 N          44.1671   52.1140   83.8456 N.am        1 DVA      -0.2635
     26 CA         42.9900   52.8503   84.2326 C.3         1 DVA       0.1330
     27 C          43.2522   53.2960   85.5999 C.2         1 DVA       0.2041
     28 O          43.6692   54.4297   85.8161 O.2         1 DVA      -0.3944
     29 CB         42.6579   53.9776   83.1908 C.3         1 DVA       0.0045
     30 CG         41.5062   53.6229   82.2063 C.3         1 DVA       0.0412
     31 CD         40.1481   53.6469   82.7390 C.2         1 DVA       0.1737
     32 OE1        39.2042   53.5854   81.9615 O.2         1 DVA      -0.3973
     33 NE2        39.8524   53.7908   84.0131 N.am        1 DVA      -0.3009
     34 N          43.1928   52.4045   86.5891 N.am        1 DVA      -0.2625
     35 CA         43.6124   52.6143   87.9497 C.3         1 DVA       0.1369
     36 C          42.6696   53.4480   88.6889 C.2         1 DVA       0.2055
     37 O          43.1102   54.3817   89.3469 O.2         1 DVA      -0.3942
     38 CB         43.8323   51.2431   88.6636 C.3         1 DVA       0.0145
     39 CG         44.8338   51.3327   89.7510 C.2         1 DVA      -0.0027
     40 ND1        44.5735   51.3876   91.0703 N.2         1 DVA      -0.3252
     41 CD2        46.2185   51.3753   89.5852 C.2         1 DVA       0.0291
     42 CE1        45.7567   51.4517   91.7000 C.2         1 DVA       0.0907
     43 NE2        46.7586   51.4459   90.8043 N.pl3       1 DVA      -0.2752
     44 N          41.3701   53.1758   88.6387 N.am        1 DVA      -0.2620
     45 CA         40.2434   53.8820   89.1916 C.3         1 DVA       0.1390
     46 C          39.9119   53.4972   90.5645 C.2         1 DVA       0.2058
     47 O          38.7475   53.1836   90.7824 O.2         1 DVA      -0.3942
     48 CB         40.1981   55.4216   88.9002 C.3         1 DVA       0.0163
     49 CG         41.0991   56.3343   89.6612 C.ar        1 DVA      -0.0493
     50 CD1        40.9229   56.5416   91.0534 C.ar        1 DVA      -0.0685
     51 CD2        42.0955   57.0869   88.9935 C.ar        1 DVA      -0.0685
     52 CE1        41.7723   57.4052   91.7695 C.ar        1 DVA      -0.0398
     53 CE2        42.9148   57.9859   89.6995 C.ar        1 DVA      -0.0398
     54 CZ         42.7732   58.1303   91.0943 C.ar        1 DVA       0.0805
     55 OH         43.5647   59.0107   91.7553 O.3         1 DVA      -0.3376
     56 N          40.8130   53.5619   91.5405 N.am        1 DVA      -0.2620
     57 CA         40.6833   53.3739   92.9710 C.3         1 DVA       0.1423
     58 C          39.3886   52.8636   93.4418 C.2         1 DVA       0.2051
     59 O          38.5271   53.6883   93.7317 O.2         1 DVA      -0.3943
     60 CB         41.8901   52.5426   93.5202 C.3         1 DVA       0.0406
     61 CG         43.1574   53.3073   93.5726 C.2         1 DVA       0.0393
     62 OD1        43.7711   53.5349   94.7585 O.co2       1 DVA      -0.5688
     63 OD2        43.7043   53.8306   92.4508 O.co2       1 DVA      -0.5688
     64 N          39.1002   51.5683   93.3692 N.am        1 DVA      -0.2671
     65 CA         37.8000   50.9830   93.5118 C.3         1 DVA       0.1173
     66 C          37.9102   49.5343   93.2277 C.2         1 DVA       0.0623
     67 O          37.7746   49.0640   91.9660 O.co2       1 DVA      -0.5665
     68 OXT        38.3883   48.6805   94.1645 O.co2       1 DVA      -0.5665
     69 CB         37.1304   51.2086   94.8975 C.3         1 DVA       0.0789
     70 OG         35.7093   51.2006   94.7578 O.3         1 DVA      -0.3910
     71 H1         49.9470   54.6801   81.6362 H           1 DVA       0.2015
     72 H2         49.8218   54.3568   80.0056 H           1 DVA       0.2015
     73 H3         51.0580   55.3201   80.5701 H           1 DVA       0.2015
     74 H4         50.6077   52.5138   81.1568 H           1 DVA       0.1101
     75 H5         51.5383   53.6955   83.0585 H           1 DVA       0.0376
     76 H6         53.4219   52.1783   83.5581 H           1 DVA       0.0236
     77 H7         53.5543   51.7435   81.8445 H           1 DVA       0.0236
     78 H8         52.0984   51.3168   82.7659 H           1 DVA       0.0236
     79 H9         52.8451   55.5087   81.8837 H           1 DVA       0.0236
     80 H10        54.0933   54.3086   81.4968 H           1 DVA       0.0236
     81 H11        53.7222   54.7014   83.1822 H           1 DVA       0.0236
     82 H12        51.3276   50.4049   80.2660 H           1 DVA       0.0802
     83 H13        51.0483   49.5034   77.4028 H           1 DVA       0.0313
     84 H14        51.7336   48.6577   78.8071 H           1 DVA       0.0313
     85 H15        53.3160   49.7606   76.8441 H           1 DVA       0.0287
     86 H16        53.8208   49.7322   78.5538 H           1 DVA       0.0287
     87 H17        53.9511   52.0383   78.1297 H           1 DVA       0.0524
     88 H18        52.5677   52.0372   77.0008 H           1 DVA       0.0524
     89 H19        49.2433   50.7845   80.8995 H           1 DVA       0.1881
     90 H20        47.0196   50.4080   79.3429 H           1 DVA       0.0763
     91 H21        47.2677   52.1550   79.4153 H           1 DVA       0.0763
     92 H22        45.7334   49.7136   81.0450 H           1 DVA       0.1884
     93 H23        46.2229   50.7221   83.7070 H           1 DVA       0.0823
     94 H24        45.3268   48.7278   84.5506 H           1 DVA       0.0606
     95 H25        46.3128   48.2685   83.1598 H           1 DVA       0.0606
     96 H26        44.4336   48.0828   81.9554 H           1 DVA       0.2097
     97 H27        45.0128   52.4358   84.2142 H           1 DVA       0.1883
     98 H28        42.1392   52.1605   84.3006 H           1 DVA       0.0801
     99 H29        43.5513   54.2048   82.6041 H           1 DVA       0.0337
    100 H30        42.3776   54.9058   83.6877 H           1 DVA       0.0337
    101 H31        41.6934   52.6331   81.7796 H           1 DVA       0.0504
    102 H32        41.5444   54.3376   81.3749 H           1 DVA       0.0504
    103 H33        38.9254   53.8022   84.2984 H           1 DVA       0.1814
    104 H34        40.5542   53.8726   84.6775 H           1 DVA       0.1814
    105 H35        42.8613   51.5174   86.3667 H           1 DVA       0.1885
    106 H36        44.5872   53.1211   87.8958 H           1 DVA       0.0817
    107 H37        44.1931   50.4908   87.9486 H           1 DVA       0.0420
    108 H38        42.8884   50.8673   89.0699 H           1 DVA       0.0420
    109 H39        46.7324   51.3447   88.6999 H           1 DVA       0.0729
    110 H40        45.8735   51.5080   92.7113 H           1 DVA       0.1199
    111 H41        47.7058   51.4855   91.0088 H           1 DVA       0.2361
    112 H42        41.1359   52.3848   88.1143 H           1 DVA       0.1885
    113 H43        39.4240   53.4996   88.5638 H           1 DVA       0.0821
    114 H44        39.1705   55.7720   89.0607 H           1 DVA       0.0453
    115 H45        40.3802   55.5490   87.8245 H           1 DVA       0.0453
    116 H46        40.1681   56.0661   91.5555 H           1 DVA       0.0530
    117 H47        42.2315   56.9883   87.9817 H           1 DVA       0.0530
    118 H48        41.6446   57.5205   92.7786 H           1 DVA       0.0525
    119 H49        43.6259   58.5296   89.1957 H           1 DVA       0.0525
    120 H50        43.8875   58.5189   92.5487 H           1 DVA       0.2458
    121 H51        41.6862   53.8667   91.2589 H           1 DVA       0.1884
    122 H52        40.7916   54.3828   93.3897 H           1 DVA       0.0819
    123 H53        42.0432   51.6568   92.9030 H           1 DVA       0.0478
    124 H54        41.6698   52.2012   94.5405 H           1 DVA       0.0478
    125 H55        39.8123   50.9784   93.0855 H           1 DVA       0.1876
    126 H56        37.1545   51.4336   92.7543 H           1 DVA       0.0749
    127 H57        37.4075   52.1835   95.3123 H           1 DVA       0.0599
    128 H58        37.4235   50.4301   95.6112 H           1 DVA       0.0599
    129 H59        35.3542   51.2280   95.6740 H           1 DVA       0.2096
@<TRIPOS>BOND
     1     1     2   1
     2     2     3   1
     3     2     6   1
     4     3     4   1
     5     3     5   1
     6     6     7   2
     7     6     8  am
     8     8     9   1
     9     8    12   1
    10     9    10   1
    11     9    13   1
    12    10    11   1
    13    11    12   1
    14    13    14   2
    15    13    15  am
    16    15    16   1
    17    16    17   1
    18    17    18   2
    19    17    19  am
    20    19    20   1
    21    20    21   1
    22    20    23   1
    23    21    22   2
    24    21    25  am
    25    23    24   1
    26    25    26   1
    27    26    27   1
    28    26    29   1
    29    27    28   2
    30    27    34  am
    31    29    30   1
    32    30    31   1
    33    31    32   2
    34    31    33  am
    35    34    35   1
    36    35    36   1
    37    35    38   1
    38    36    37   2
    39    36    44  am
    40    38    39   1
    41    39    40   1
    42    39    41   2
    43    40    42   2
    44    41    43   1
    45    42    43   1
    46    44    45   1
    47    45    46   1
    48    45    48   1
    49    46    47   2
    50    46    56  am
    51    48    49   1
    52    49    50  ar
    53    49    51  ar
    54    50    52  ar
    55    51    53  ar
    56    52    54  ar
    57    53    54  ar
    58    54    55   1
    59    56    57   1
    60    57    58   1
    61    57    60   1
    62    58    59   2
    63    58    64  am
    64    60    61   1
    65    61    62  ar
    66    61    63  ar
    67    64    65   1
    68    65    66   1
    69    65    69   1
    70    66    67  ar
    71    66    68  ar
    72    69    70   1
    73     1    71   1
    74     1    72   1
    75     1    73   1
    76     2    74   1
    77     3    75   1
    78     4    76   1
    79     4    77   1
    80     4    78   1
    81     5    79   1
    82     5    80   1
    83     5    81   1
    84     9    82   1
    85    10    83   1
    86    10    84   1
    87    11    85   1
    88    11    86   1
    89    12    87   1
    90    12    88   1
    91    15    89   1
    92    16    90   1
    93    16    91   1
    94    19    92   1
    95    20    93   1
    96    23    94   1
    97    23    95   1
    98    24    96   1
    99    25    97   1
   100    26    98   1
   101    29    99   1
   102    29   100   1
   103    30   101   1
   104    30   102   1
   105    33   103   1
   106    33   104   1
   107    34   105   1
   108    35   106   1
   109    38   107   1
   110    38   108   1
   111    41   109   1
   112    42   110   1
   113    43   111   1
   114    44   112   1
   115    45   113   1
   116    48   114   1
   117    48   115   1
   118    50   116   1
   119    51   117   1
   120    52   118   1
   121    53   119   1
   122    55   120   1
   123    56   121   1
   124    57   122   1
   125    60   123   1
   126    60   124   1
   127    64   125   1
   128    65   126   1
   129    69   127   1
   130    69   128   1
   131    70   129   1
@<TRIPOS>SUBSTRUCTURE
     1  DVA      2

