@<TRIPOS>MOLECULE
1zea_ligand_012
   129   131
SMALL
GAST_HUCK
****
This file was generated by PARSER (from files_GN.cpp)

@<TRIPOS>ATOM
      1 N          51.4401   49.7369   77.9173 N.4         1 DVA       0.2381
      2 CA         51.5060   50.9151   77.0420 C.3         1 DVA       0.0675
      3 CB         52.9759   51.2134   76.5364 C.3         1 DVA       0.0139
      4 CG1        53.2304   52.7033   76.1660 C.3         1 DVA      -0.0553
      5 CG2        54.1337   50.6571   77.4169 C.3         1 DVA      -0.0553
      6 C          50.6951   52.0196   77.5939 C.2         1 DVA       0.2295
      7 O          49.7881   52.4088   76.8604 O.2         1 DVA      -0.3905
      8 N          50.7963   52.6084   78.8044 N.am        1 DVA      -0.2471
      9 CA         49.8971   53.6626   79.2448 C.3         1 DVA       0.1339
     10 CB         50.5994   54.2954   80.4708 C.3         1 DVA      -0.0104
     11 CG         51.4116   53.1345   81.0467 C.3         1 DVA      -0.0281
     12 CD         51.7947   52.3223   79.7939 C.3         1 DVA       0.0371
     13 C          48.5353   53.2214   79.5638 C.2         1 DVA       0.2039
     14 O          47.6772   54.0864   79.7131 O.2         1 DVA      -0.3944
     15 N          48.2220   51.9323   79.6899 N.am        1 DVA      -0.2664
     16 CA         46.9161   51.3943   79.9406 C.3         1 DVA       0.1201
     17 C          46.5181   51.4286   81.3388 C.2         1 DVA       0.2008
     18 O          46.6911   52.4547   81.9868 O.2         1 DVA      -0.3947
     19 N          45.8448   50.4045   81.8565 N.am        1 DVA      -0.2618
     20 CA         45.3346   50.3028   83.1980 C.3         1 DVA       0.1539
     21 C          43.9703   50.8189   83.2533 C.2         1 DVA       0.2062
     22 O          43.1310   50.3726   82.4860 O.2         1 DVA      -0.3943
     23 CB         45.4271   48.8388   83.7109 C.3         1 DVA       0.0843
     24 OG         44.4267   47.9727   83.1729 O.3         1 DVA      -0.3903
     25 N          43.6443   51.7389   84.1522 N.am        1 DVA      -0.2635
     26 CA         42.3366   52.2849   84.4180 C.3         1 DVA       0.1330
     27 C          42.5237   53.1992   85.5412 C.2         1 DVA       0.2041
     28 O          43.1242   54.2502   85.3434 O.2         1 DVA      -0.3944
     29 CB         41.6916   52.9560   83.1598 C.3         1 DVA       0.0045
     30 CG         40.7042   54.1432   83.4308 C.3         1 DVA       0.0412
     31 CD         39.3811   54.0089   82.8524 C.2         1 DVA       0.1737
     32 OE1        39.1845   54.2488   81.6694 O.2         1 DVA      -0.3973
     33 NE2        38.3414   53.7242   83.6075 N.am        1 DVA      -0.3009
     34 N          42.1062   52.8452   86.7536 N.am        1 DVA      -0.2625
     35 CA         42.3119   53.4782   88.0347 C.3         1 DVA       0.1369
     36 C          43.5176   54.3024   88.1679 C.2         1 DVA       0.2055
     37 O          44.5150   53.9575   87.5440 O.2         1 DVA      -0.3942
     38 CB         40.9668   54.1028   88.5345 C.3         1 DVA       0.0145
     39 CG         40.6549   55.4688   88.0593 C.2         1 DVA      -0.0027
     40 ND1        41.0207   56.0208   86.8884 N.2         1 DVA      -0.3252
     41 CD2        39.9541   56.4398   88.7715 C.2         1 DVA       0.0291
     42 CE1        40.5621   57.2846   86.8737 C.2         1 DVA       0.0907
     43 NE2        39.9066   57.5403   88.0142 N.pl3       1 DVA      -0.2752
     44 N          43.5665   55.3816   88.9405 N.am        1 DVA      -0.2620
     45 CA         44.6710   56.2864   89.1106 C.3         1 DVA       0.1390
     46 C          44.1229   57.5781   89.5351 C.2         1 DVA       0.2058
     47 O          44.0474   58.4767   88.7113 O.2         1 DVA      -0.3942
     48 CB         45.8330   55.7449   90.0232 C.3         1 DVA       0.0163
     49 CG         45.4881   54.6136   90.9406 C.ar        1 DVA      -0.0493
     50 CD1        45.4685   53.2779   90.4686 C.ar        1 DVA      -0.0685
     51 CD2        45.1643   54.8448   92.2988 C.ar        1 DVA      -0.0685
     52 CE1        45.0741   52.2177   91.3055 C.ar        1 DVA      -0.0398
     53 CE2        44.7576   53.7888   93.1356 C.ar        1 DVA      -0.0398
     54 CZ         44.6992   52.4721   92.6356 C.ar        1 DVA       0.0805
     55 OH         44.2946   51.4459   93.4239 O.3         1 DVA      -0.3376
     56 N          43.6229   57.7203   90.7564 N.am        1 DVA      -0.2620
     57 CA         42.9621   58.8160   91.4213 C.3         1 DVA       0.1423
     58 C          43.4898   58.8995   92.7846 C.2         1 DVA       0.2051
     59 O          44.2371   59.8105   93.1140 O.2         1 DVA      -0.3943
     60 CB         42.7513   60.1848   90.6844 C.3         1 DVA       0.0406
     61 CG         43.9456   60.9372   90.2338 C.2         1 DVA       0.0393
     62 OD1        44.6103   61.7472   91.0857 O.co2       1 DVA      -0.5688
     63 OD2        44.1340   61.1777   88.9177 O.co2       1 DVA      -0.5688
     64 N          43.1883   57.9445   93.6639 N.am        1 DVA      -0.2671
     65 CA         43.5528   57.8617   95.0525 C.3         1 DVA       0.1173
     66 C          45.0154   57.9960   95.2670 C.2         1 DVA       0.0623
     67 O          45.8561   57.0798   94.7368 O.co2       1 DVA      -0.5665
     68 OXT        45.5539   59.0333   95.9485 O.co2       1 DVA      -0.5665
     69 CB         42.6714   58.7931   95.9335 C.3         1 DVA       0.0789
     70 OG         43.0276   60.1712   95.8500 O.3         1 DVA      -0.3910
     71 H1         51.7814   48.9283   77.3983 H           1 DVA       0.2015
     72 H2         50.4769   49.5568   78.2060 H           1 DVA       0.2015
     73 H3         52.0255   49.8728   78.7404 H           1 DVA       0.2015
     74 H4         50.9806   50.5640   76.1421 H           1 DVA       0.1101
     75 H5         53.0909   50.6747   75.5880 H           1 DVA       0.0376
     76 H6         54.1953   52.8163   75.6650 H           1 DVA       0.0236
     77 H7         53.2278   53.3315   77.0573 H           1 DVA       0.0236
     78 H8         52.4594   53.0612   75.4789 H           1 DVA       0.0236
     79 H9         54.0616   49.5697   77.4869 H           1 DVA       0.0236
     80 H10        54.1121   51.0717   78.4219 H           1 DVA       0.0236
     81 H11        55.1039   50.8879   76.9681 H           1 DVA       0.0236
     82 H12        49.8332   54.4317   78.4666 H           1 DVA       0.0802
     83 H13        49.9089   54.7145   81.2142 H           1 DVA       0.0313
     84 H14        51.2801   55.0892   80.1411 H           1 DVA       0.0313
     85 H15        50.7862   52.5319   81.7158 H           1 DVA       0.0287
     86 H16        52.2919   53.4900   81.5915 H           1 DVA       0.0287
     87 H17        52.7670   52.6603   79.4351 H           1 DVA       0.0524
     88 H18        51.8245   51.2650   80.0518 H           1 DVA       0.0524
     89 H19        48.9274   51.2820   79.5414 H           1 DVA       0.1881
     90 H20        46.9312   50.3576   79.5901 H           1 DVA       0.0763
     91 H21        46.1682   51.9286   79.3492 H           1 DVA       0.0763
     92 H22        45.6530   49.6577   81.2658 H           1 DVA       0.1884
     93 H23        45.9749   50.8863   83.8715 H           1 DVA       0.0823
     94 H24        45.3239   48.8261   84.7990 H           1 DVA       0.0606
     95 H25        46.4103   48.4310   83.4632 H           1 DVA       0.0606
     96 H26        44.6076   47.9373   82.2133 H           1 DVA       0.2097
     97 H27        44.3626   52.0319   84.7382 H           1 DVA       0.1883
     98 H28        41.6798   51.4624   84.7277 H           1 DVA       0.0801
     99 H29        41.1874   52.1749   82.5836 H           1 DVA       0.0337
    100 H30        42.5007   53.3281   82.5216 H           1 DVA       0.0337
    101 H31        41.1405   55.0560   83.0192 H           1 DVA       0.0504
    102 H32        40.6025   54.3184   84.5038 H           1 DVA       0.0504
    103 H33        37.4462   53.7071   83.2318 H           1 DVA       0.1814
    104 H34        38.4711   53.5305   84.5517 H           1 DVA       0.1814
    105 H35        41.6357   51.9932   86.8019 H           1 DVA       0.1885
    106 H36        42.4962   52.6340   88.7082 H           1 DVA       0.0817
    107 H37        40.9928   54.1211   89.6295 H           1 DVA       0.0420
    108 H38        40.1314   53.4559   88.2531 H           1 DVA       0.0420
    109 H39        39.5555   56.3429   89.7056 H           1 DVA       0.0729
    110 H40        40.6924   57.9452   86.1077 H           1 DVA       0.1199
    111 H41        39.4774   58.3776   88.2500 H           1 DVA       0.2361
    112 H42        42.7542   55.6116   89.4162 H           1 DVA       0.1885
    113 H43        45.1004   56.4305   88.1113 H           1 DVA       0.0821
    114 H44        46.2658   56.5569   90.6147 H           1 DVA       0.0453
    115 H45        46.6415   55.4164   89.3626 H           1 DVA       0.0453
    116 H46        45.7215   53.0651   89.5000 H           1 DVA       0.0530
    117 H47        45.2309   55.7820   92.6946 H           1 DVA       0.0530
    118 H48        45.0486   51.2616   90.9393 H           1 DVA       0.0525
    119 H49        44.5020   53.9765   94.1068 H           1 DVA       0.0525
    120 H50        43.3150   51.4609   93.3870 H           1 DVA       0.2458
    121 H51        43.6729   56.9190   91.2941 H           1 DVA       0.1884
    122 H52        41.9376   58.4477   91.5352 H           1 DVA       0.0819
    123 H53        42.1854   60.8481   91.3434 H           1 DVA       0.0478
    124 H54        42.1102   60.0001   89.8156 H           1 DVA       0.0478
    125 H55        42.6465   57.2130   93.3247 H           1 DVA       0.1876
    126 H56        43.3033   56.8444   95.3626 H           1 DVA       0.0749
    127 H57        42.7572   58.4904   96.9785 H           1 DVA       0.0599
    128 H58        41.6230   58.6901   95.6424 H           1 DVA       0.0599
    129 H59        42.8011   60.4448   94.9368 H           1 DVA       0.2096
@<TRIPOS>BOND
     1     1     2   1
     2     2     3   1
     3     2     6   1
     4     3     4   1
     5     3     5   1
     6     6     7   2
     7     6     8  am
     8     8     9   1
     9     8    12   1
    10     9    10   1
    11     9    13   1
    12    10    11   1
    13    11    12   1
    14    13    14   2
    15    13    15  am
    16    15    16   1
    17    16    17   1
    18    17    18   2
    19    17    19  am
    20    19    20   1
    21    20    21   1
    22    20    23   1
    23    21    22   2
    24    21    25  am
    25    23    24   1
    26    25    26   1
    27    26    27   1
    28    26    29   1
    29    27    28   2
    30    27    34  am
    31    29    30   1
    32    30    31   1
    33    31    32   2
    34    31    33  am
    35    34    35   1
    36    35    36   1
    37    35    38   1
    38    36    37   2
    39    36    44  am
    40    38    39   1
    41    39    40   1
    42    39    41   2
    43    40    42   2
    44    41    43   1
    45    42    43   1
    46    44    45   1
    47    45    46   1
    48    45    48   1
    49    46    47   2
    50    46    56  am
    51    48    49   1
    52    49    50  ar
    53    49    51  ar
    54    50    52  ar
    55    51    53  ar
    56    52    54  ar
    57    53    54  ar
    58    54    55   1
    59    56    57   1
    60    57    58   1
    61    57    60   1
    62    58    59   2
    63    58    64  am
    64    60    61   1
    65    61    62  ar
    66    61    63  ar
    67    64    65   1
    68    65    66   1
    69    65    69   1
    70    66    67  ar
    71    66    68  ar
    72    69    70   1
    73     1    71   1
    74     1    72   1
    75     1    73   1
    76     2    74   1
    77     3    75   1
    78     4    76   1
    79     4    77   1
    80     4    78   1
    81     5    79   1
    82     5    80   1
    83     5    81   1
    84     9    82   1
    85    10    83   1
    86    10    84   1
    87    11    85   1
    88    11    86   1
    89    12    87   1
    90    12    88   1
    91    15    89   1
    92    16    90   1
    93    16    91   1
    94    19    92   1
    95    20    93   1
    96    23    94   1
    97    23    95   1
    98    24    96   1
    99    25    97   1
   100    26    98   1
   101    29    99   1
   102    29   100   1
   103    30   101   1
   104    30   102   1
   105    33   103   1
   106    33   104   1
   107    34   105   1
   108    35   106   1
   109    38   107   1
   110    38   108   1
   111    41   109   1
   112    42   110   1
   113    43   111   1
   114    44   112   1
   115    45   113   1
   116    48   114   1
   117    48   115   1
   118    50   116   1
   119    51   117   1
   120    52   118   1
   121    53   119   1
   122    55   120   1
   123    56   121   1
   124    57   122   1
   125    60   123   1
   126    60   124   1
   127    64   125   1
   128    65   126   1
   129    69   127   1
   130    69   128   1
   131    70   129   1
@<TRIPOS>SUBSTRUCTURE
     1  DVA      2

