@<TRIPOS>MOLECULE
1zea_ligand_009
   129   131
SMALL
GAST_HUCK
****
This file was generated by PARSER (from files_GN.cpp)

@<TRIPOS>ATOM
      1 N          51.9348   49.3852   78.3350 N.4         1 DVA       0.2381
      2 CA         52.1551   50.8081   78.0101 C.3         1 DVA       0.0675
      3 CB         53.3672   51.0183   77.0307 C.3         1 DVA       0.0139
      4 CG1        54.6828   50.3060   77.4633 C.3         1 DVA      -0.0553
      5 CG2        53.0066   50.6055   75.5738 C.3         1 DVA      -0.0553
      6 C          52.2606   51.5956   79.2483 C.2         1 DVA       0.2295
      7 O          53.1285   51.2281   80.0330 O.2         1 DVA      -0.3905
      8 N          51.5158   52.6702   79.5771 N.am        1 DVA      -0.2471
      9 CA         50.4173   53.2114   78.8143 C.3         1 DVA       0.1339
     10 CB         50.1586   54.6170   79.4133 C.3         1 DVA      -0.0104
     11 CG         50.7031   54.5382   80.8436 C.3         1 DVA      -0.0281
     12 CD         51.7771   53.4381   80.7666 C.3         1 DVA       0.0371
     13 C          49.2435   52.3401   78.8656 C.2         1 DVA       0.2039
     14 O          48.8844   51.7633   77.8459 O.2         1 DVA      -0.3944
     15 N          48.6132   52.1441   80.0173 N.am        1 DVA      -0.2664
     16 CA         47.4744   51.2976   80.2359 C.3         1 DVA       0.1201
     17 C          47.1800   51.0675   81.6448 C.2         1 DVA       0.2008
     18 O          47.6851   51.7775   82.5099 O.2         1 DVA      -0.3947
     19 N          46.3749   50.0648   81.9810 N.am        1 DVA      -0.2618
     20 CA         46.0643   49.6294   83.3178 C.3         1 DVA       0.1539
     21 C          45.4180   50.6691   84.1151 C.2         1 DVA       0.2062
     22 O          45.9054   50.9474   85.2013 O.2         1 DVA      -0.3943
     23 CB         45.2066   48.3362   83.2781 C.3         1 DVA       0.0843
     24 OG         43.9514   48.4818   82.6168 O.3         1 DVA      -0.3903
     25 N          44.3175   51.2600   83.6542 N.am        1 DVA      -0.2635
     26 CA         43.4356   52.2389   84.2439 C.3         1 DVA       0.1330
     27 C          43.8287   52.7619   85.5546 C.2         1 DVA       0.2041
     28 O          44.6658   53.6554   85.6190 O.2         1 DVA      -0.3944
     29 CB         43.1749   53.3340   83.1551 C.3         1 DVA       0.0045
     30 CG         42.0517   54.3715   83.4423 C.3         1 DVA       0.0412
     31 CD         40.8016   53.7960   83.8988 C.2         1 DVA       0.1737
     32 OE1        40.4075   52.7301   83.4430 O.2         1 DVA      -0.3973
     33 NE2        40.0494   54.3966   84.7949 N.am        1 DVA      -0.3009
     34 N          43.3983   52.1501   86.6568 N.am        1 DVA      -0.2625
     35 CA         43.7288   52.4874   88.0159 C.3         1 DVA       0.1369
     36 C          42.6710   53.3588   88.5183 C.2         1 DVA       0.2055
     37 O          42.8026   54.5582   88.2950 O.2         1 DVA      -0.3942
     38 CB         43.9940   51.1816   88.8308 C.3         1 DVA       0.0145
     39 CG         44.4995   51.4007   90.2066 C.2         1 DVA      -0.0027
     40 ND1        45.5642   50.7638   90.7301 N.2         1 DVA      -0.3252
     41 CD2        43.9689   52.2150   91.2059 C.2         1 DVA       0.0291
     42 CE1        45.6941   51.1719   92.0037 C.2         1 DVA       0.0907
     43 NE2        44.7221   52.0466   92.2987 N.pl3       1 DVA      -0.2752
     44 N          41.5821   52.8867   89.1152 N.am        1 DVA      -0.2620
     45 CA         40.4047   53.6061   89.5366 C.3         1 DVA       0.1390
     46 C          39.6031   52.6721   90.3271 C.2         1 DVA       0.2058
     47 O          38.5296   52.2735   89.8800 O.2         1 DVA      -0.3942
     48 CB         40.7100   54.9380   90.3296 C.3         1 DVA       0.0163
     49 CG         40.3810   56.2237   89.6463 C.ar        1 DVA      -0.0493
     50 CD1        40.0930   57.3711   90.4318 C.ar        1 DVA      -0.0685
     51 CD2        40.4389   56.3850   88.2374 C.ar        1 DVA      -0.0685
     52 CE1        39.8044   58.6066   89.8323 C.ar        1 DVA      -0.0398
     53 CE2        40.1592   57.6222   87.6329 C.ar        1 DVA      -0.0398
     54 CZ         39.8238   58.7310   88.4324 C.ar        1 DVA       0.0805
     55 OH         39.4737   59.8952   87.8541 O.3         1 DVA      -0.3376
     56 N          40.0492   52.2527   91.5064 N.am        1 DVA      -0.2620
     57 CA         39.4338   51.3033   92.4026 C.3         1 DVA       0.1423
     58 C          40.1470   51.1946   93.6797 C.2         1 DVA       0.2051
     59 O          40.8930   52.0988   94.0381 O.2         1 DVA      -0.3943
     60 CB         37.9134   51.5947   92.6229 C.3         1 DVA       0.0406
     61 CG         37.5091   51.8883   94.0112 C.2         1 DVA       0.0393
     62 OD1        36.2118   51.7247   94.3636 O.co2       1 DVA      -0.5688
     63 OD2        38.2606   52.7056   94.7831 O.co2       1 DVA      -0.5688
     64 N          39.9740   50.1005   94.4132 N.am        1 DVA      -0.2671
     65 CA         40.5223   49.7063   95.6859 C.3         1 DVA       0.1173
     66 C          41.9420   50.0550   95.9664 C.2         1 DVA       0.0623
     67 O          42.2681   51.2051   96.5995 O.co2       1 DVA      -0.5665
     68 OXT        42.9423   49.2145   95.6095 O.co2       1 DVA      -0.5665
     69 CB         39.6075   50.2449   96.8180 C.3         1 DVA       0.0789
     70 OG         38.2561   49.8242   96.6280 O.3         1 DVA      -0.3910
     71 H1         51.8701   48.8439   77.4727 H           1 DVA       0.2015
     72 H2         51.0598   49.2654   78.8547 H           1 DVA       0.2015
     73 H3         52.7186   49.0340   78.8903 H           1 DVA       0.2015
     74 H4         51.2569   51.1014   77.4694 H           1 DVA       0.1101
     75 H5         53.5804   52.0920   76.9957 H           1 DVA       0.0376
     76 H6         55.4813   50.5169   76.7502 H           1 DVA       0.0236
     77 H7         54.5399   49.2253   77.5093 H           1 DVA       0.0236
     78 H8         55.0163   50.6570   78.4384 H           1 DVA       0.0236
     79 H9         52.1370   51.1645   75.2215 H           1 DVA       0.0236
     80 H10        52.7813   49.5386   75.5163 H           1 DVA       0.0236
     81 H11        53.8361   50.8213   74.8972 H           1 DVA       0.0236
     82 H12        50.7305   53.3630   77.7753 H           1 DVA       0.0802
     83 H13        49.1039   54.9075   79.3989 H           1 DVA       0.0313
     84 H14        50.7272   55.3673   78.8561 H           1 DVA       0.0313
     85 H15        49.9074   54.2484   81.5349 H           1 DVA       0.0287
     86 H16        51.1238   55.4933   81.1692 H           1 DVA       0.0287
     87 H17        52.7714   53.8912   80.7042 H           1 DVA       0.0524
     88 H18        51.7265   52.8102   81.6614 H           1 DVA       0.0524
     89 H19        48.9663   52.6025   80.7952 H           1 DVA       0.1881
     90 H20        47.6658   50.3304   79.7585 H           1 DVA       0.0763
     91 H21        46.5943   51.7496   79.7683 H           1 DVA       0.0763
     92 H22        46.0320   49.5226   81.2523 H           1 DVA       0.1884
     93 H23        47.0146   49.3434   83.7852 H           1 DVA       0.0823
     94 H24        45.0178   47.9909   84.2967 H           1 DVA       0.0606
     95 H25        45.7666   47.5595   82.7593 H           1 DVA       0.0606
     96 H26        44.1755   48.5700   81.6681 H           1 DVA       0.2097
     97 H27        44.0650   50.9879   82.7566 H           1 DVA       0.1883
     98 H28        42.4818   51.7161   84.3793 H           1 DVA       0.0801
     99 H29        42.9272   52.8301   82.2170 H           1 DVA       0.0337
    100 H30        44.1042   53.8875   82.9801 H           1 DVA       0.0337
    101 H31        41.8427   54.9091   82.5144 H           1 DVA       0.0504
    102 H32        42.4167   55.1067   84.1628 H           1 DVA       0.0504
    103 H33        39.2536   53.9552   85.1346 H           1 DVA       0.1814
    104 H34        40.3027   55.2650   85.1489 H           1 DVA       0.1814
    105 H35        42.7963   51.3961   86.5353 H           1 DVA       0.1885
    106 H36        44.6815   53.0340   88.0193 H           1 DVA       0.0817
    107 H37        44.7460   50.5975   88.2909 H           1 DVA       0.0420
    108 H38        43.0931   50.5682   88.8791 H           1 DVA       0.0420
    109 H39        43.1449   52.8172   91.1366 H           1 DVA       0.0729
    110 H40        46.4133   50.8537   92.6557 H           1 DVA       0.1199
    111 H41        44.5847   52.4769   93.1583 H           1 DVA       0.2361
    112 H42        41.5521   51.9257   89.2499 H           1 DVA       0.1885
    113 H43        39.8545   53.8437   88.6189 H           1 DVA       0.0821
    114 H44        41.7658   54.9809   90.5957 H           1 DVA       0.0453
    115 H45        40.1865   54.9247   91.2901 H           1 DVA       0.0453
    116 H46        40.0862   57.3130   91.4531 H           1 DVA       0.0530
    117 H47        40.6586   55.5962   87.6293 H           1 DVA       0.0530
    118 H48        39.5876   59.4187   90.4155 H           1 DVA       0.0525
    119 H49        40.1915   57.7165   86.6133 H           1 DVA       0.0525
    120 H50        38.5020   59.9313   87.9780 H           1 DVA       0.2458
    121 H51        40.9074   52.6131   91.7876 H           1 DVA       0.1884
    122 H52        39.5167   50.3251   91.9154 H           1 DVA       0.0819
    123 H53        37.3367   50.7337   92.2682 H           1 DVA       0.0478
    124 H54        37.6086   52.4454   92.0112 H           1 DVA       0.0478
    125 H55        39.3958   49.4340   94.0050 H           1 DVA       0.1876
    126 H56        40.4490   48.6161   95.6999 H           1 DVA       0.0749
    127 H57        39.6324   51.3403   96.8400 H           1 DVA       0.0599
    128 H58        39.9459   49.8677   97.7884 H           1 DVA       0.0599
    129 H59        37.7660   50.2195   97.3803 H           1 DVA       0.2096
@<TRIPOS>BOND
     1     1     2   1
     2     2     3   1
     3     2     6   1
     4     3     4   1
     5     3     5   1
     6     6     7   2
     7     6     8  am
     8     8     9   1
     9     8    12   1
    10     9    10   1
    11     9    13   1
    12    10    11   1
    13    11    12   1
    14    13    14   2
    15    13    15  am
    16    15    16   1
    17    16    17   1
    18    17    18   2
    19    17    19  am
    20    19    20   1
    21    20    21   1
    22    20    23   1
    23    21    22   2
    24    21    25  am
    25    23    24   1
    26    25    26   1
    27    26    27   1
    28    26    29   1
    29    27    28   2
    30    27    34  am
    31    29    30   1
    32    30    31   1
    33    31    32   2
    34    31    33  am
    35    34    35   1
    36    35    36   1
    37    35    38   1
    38    36    37   2
    39    36    44  am
    40    38    39   1
    41    39    40   1
    42    39    41   2
    43    40    42   2
    44    41    43   1
    45    42    43   1
    46    44    45   1
    47    45    46   1
    48    45    48   1
    49    46    47   2
    50    46    56  am
    51    48    49   1
    52    49    50  ar
    53    49    51  ar
    54    50    52  ar
    55    51    53  ar
    56    52    54  ar
    57    53    54  ar
    58    54    55   1
    59    56    57   1
    60    57    58   1
    61    57    60   1
    62    58    59   2
    63    58    64  am
    64    60    61   1
    65    61    62  ar
    66    61    63  ar
    67    64    65   1
    68    65    66   1
    69    65    69   1
    70    66    67  ar
    71    66    68  ar
    72    69    70   1
    73     1    71   1
    74     1    72   1
    75     1    73   1
    76     2    74   1
    77     3    75   1
    78     4    76   1
    79     4    77   1
    80     4    78   1
    81     5    79   1
    82     5    80   1
    83     5    81   1
    84     9    82   1
    85    10    83   1
    86    10    84   1
    87    11    85   1
    88    11    86   1
    89    12    87   1
    90    12    88   1
    91    15    89   1
    92    16    90   1
    93    16    91   1
    94    19    92   1
    95    20    93   1
    96    23    94   1
    97    23    95   1
    98    24    96   1
    99    25    97   1
   100    26    98   1
   101    29    99   1
   102    29   100   1
   103    30   101   1
   104    30   102   1
   105    33   103   1
   106    33   104   1
   107    34   105   1
   108    35   106   1
   109    38   107   1
   110    38   108   1
   111    41   109   1
   112    42   110   1
   113    43   111   1
   114    44   112   1
   115    45   113   1
   116    48   114   1
   117    48   115   1
   118    50   116   1
   119    51   117   1
   120    52   118   1
   121    53   119   1
   122    55   120   1
   123    56   121   1
   124    57   122   1
   125    60   123   1
   126    60   124   1
   127    64   125   1
   128    65   126   1
   129    69   127   1
   130    69   128   1
   131    70   129   1
@<TRIPOS>SUBSTRUCTURE
     1  DVA      2

