@<TRIPOS>MOLECULE
1zea_ligand_081
   129   131
SMALL
GAST_HUCK
****
This file was generated by PARSER (from files_GN.cpp)

@<TRIPOS>ATOM
      1 N          50.1508   54.3447   83.1182 N.4         1 DVA       0.2381
      2 CA         51.1475   53.2604   82.9954 C.3         1 DVA       0.0675
      3 CB         52.0770   53.1843   84.2630 C.3         1 DVA       0.0139
      4 CG1        51.2706   53.0916   85.5919 C.3         1 DVA      -0.0553
      5 CG2        53.0785   51.9946   84.1952 C.3         1 DVA      -0.0553
      6 C          51.8948   53.4759   81.7485 C.2         1 DVA       0.2295
      7 O          52.6471   54.4447   81.7656 O.2         1 DVA      -0.3905
      8 N          51.8489   52.6966   80.6479 N.am        1 DVA      -0.2471
      9 CA         50.9427   51.5896   80.4148 C.3         1 DVA       0.1339
     10 CB         51.3631   51.0176   79.0327 C.3         1 DVA      -0.0104
     11 CG         52.7956   51.5291   78.8208 C.3         1 DVA      -0.0281
     12 CD         52.7988   52.8629   79.5773 C.3         1 DVA       0.0371
     13 C          49.5044   51.8907   80.4202 C.2         1 DVA       0.2039
     14 O          49.1185   53.0363   80.6398 O.2         1 DVA      -0.3944
     15 N          48.6482   50.9218   80.1198 N.am        1 DVA      -0.2664
     16 CA         47.2270   51.0568   79.9788 C.3         1 DVA       0.1201
     17 C          46.5513   51.3306   81.2410 C.2         1 DVA       0.2008
     18 O          46.7305   52.4236   81.7729 O.2         1 DVA      -0.3947
     19 N          45.8147   50.3958   81.8277 N.am        1 DVA      -0.2618
     20 CA         45.2113   50.4612   83.1362 C.3         1 DVA       0.1539
     21 C          43.9290   51.1635   83.1182 C.2         1 DVA       0.2062
     22 O          42.9888   50.6569   82.5109 O.2         1 DVA      -0.3943
     23 CB         45.0698   49.0385   83.7383 C.3         1 DVA       0.0843
     24 OG         44.1028   48.2347   83.0613 O.3         1 DVA      -0.3903
     25 N          43.7586   52.2704   83.8483 N.am        1 DVA      -0.2635
     26 CA         42.5560   53.0594   83.9710 C.3         1 DVA       0.1330
     27 C          42.6361   53.8250   85.2166 C.2         1 DVA       0.2041
     28 O          43.6355   54.5009   85.4177 O.2         1 DVA      -0.3944
     29 CB         42.3205   53.9662   82.7078 C.3         1 DVA       0.0045
     30 CG         41.0531   53.6090   81.8765 C.3         1 DVA       0.0412
     31 CD         39.7672   53.7282   82.5428 C.2         1 DVA       0.1737
     32 OE1        38.7565   53.3730   81.9500 O.2         1 DVA      -0.3973
     33 NE2        39.5928   54.2295   83.7403 N.am        1 DVA      -0.3009
     34 N          41.6280   53.8186   86.0849 N.am        1 DVA      -0.2625
     35 CA         41.5576   54.4364   87.3902 C.3         1 DVA       0.1369
     36 C          42.3588   53.6740   88.3505 C.2         1 DVA       0.2055
     37 O          43.5240   54.0198   88.5073 O.2         1 DVA      -0.3942
     38 CB         41.8737   55.9813   87.3948 C.3         1 DVA       0.0145
     39 CG         40.7666   56.8833   87.7756 C.2         1 DVA      -0.0027
     40 ND1        40.5133   58.0682   87.1777 N.2         1 DVA      -0.3252
     41 CD2        39.9435   56.7996   88.8952 C.2         1 DVA       0.0291
     42 CE1        39.5695   58.6821   87.8928 C.2         1 DVA       0.0907
     43 NE2        39.2035   57.9097   88.9348 N.pl3       1 DVA      -0.2752
     44 N          41.8369   52.6232   88.9926 N.am        1 DVA      -0.2620
     45 CA         42.4505   51.7392   89.9595 C.3         1 DVA       0.1390
     46 C          43.9097   51.5680   89.8321 C.2         1 DVA       0.2058
     47 O          44.3054   51.0036   88.8149 O.2         1 DVA      -0.3942
     48 CB         41.8783   52.0046   91.3965 C.3         1 DVA       0.0163
     49 CG         41.4620   53.3965   91.7410 C.ar        1 DVA      -0.0493
     50 CD1        42.2562   54.5186   91.3886 C.ar        1 DVA      -0.0685
     51 CD2        40.2614   53.6180   92.4652 C.ar        1 DVA      -0.0685
     52 CE1        41.8345   55.8248   91.7186 C.ar        1 DVA      -0.0398
     53 CE2        39.8465   54.9190   92.7893 C.ar        1 DVA      -0.0398
     54 CZ         40.6199   56.0334   92.4126 C.ar        1 DVA       0.0805
     55 OH         40.1788   57.2854   92.7065 O.3         1 DVA      -0.3376
     56 N          44.7921   52.0578   90.7161 N.am        1 DVA      -0.2620
     57 CA         46.2406   52.0814   90.6120 C.3         1 DVA       0.1423
     58 C          46.8274   50.8579   90.0468 C.2         1 DVA       0.2051
     59 O          46.8587   49.8596   90.7699 O.2         1 DVA      -0.3943
     60 CB         46.6847   53.4196   89.9114 C.3         1 DVA       0.0406
     61 CG         46.5136   54.6133   90.7686 C.2         1 DVA       0.0393
     62 OD1        47.3934   54.8482   91.7787 O.co2       1 DVA      -0.5688
     63 OD2        45.6436   55.5965   90.4176 O.co2       1 DVA      -0.5688
     64 N          47.0960   50.7953   88.7472 N.am        1 DVA      -0.2671
     65 CA         47.4202   49.6330   87.9691 C.3         1 DVA       0.1173
     66 C          47.1513   49.9980   86.5627 C.2         1 DVA       0.0623
     67 O          46.0108   50.6683   86.2712 O.co2       1 DVA      -0.5665
     68 OXT        47.7156   49.3269   85.5316 O.co2       1 DVA      -0.5665
     69 CB         48.8816   49.1323   88.2202 C.3         1 DVA       0.0789
     70 OG         48.9277   48.1685   89.2809 O.3         1 DVA      -0.3910
     71 H1         49.5425   54.1708   83.9212 H           1 DVA       0.2015
     72 H2         49.5794   54.3787   82.2665 H           1 DVA       0.2015
     73 H3         50.6305   55.2427   83.2434 H           1 DVA       0.2015
     74 H4         50.5828   52.3281   82.9615 H           1 DVA       0.1101
     75 H5         52.6662   54.1064   84.3175 H           1 DVA       0.0376
     76 H6         51.9496   53.0157   86.4484 H           1 DVA       0.0236
     77 H7         50.6189   52.2135   85.5904 H           1 DVA       0.0236
     78 H8         50.6597   53.9836   85.7361 H           1 DVA       0.0236
     79 H9         53.7060   52.0659   83.3044 H           1 DVA       0.0236
     80 H10        52.5421   51.0440   84.1675 H           1 DVA       0.0236
     81 H11        53.7427   51.9995   85.0628 H           1 DVA       0.0236
     82 H12        51.1552   50.8268   81.1752 H           1 DVA       0.0802
     83 H13        50.7404   51.4018   78.2140 H           1 DVA       0.0313
     84 H14        51.3341   49.9222   79.0146 H           1 DVA       0.0313
     85 H15        53.0400   51.6615   77.7628 H           1 DVA       0.0287
     86 H16        53.5108   50.8382   79.2798 H           1 DVA       0.0287
     87 H17        53.8129   53.0641   79.9458 H           1 DVA       0.0524
     88 H18        52.4813   53.6860   78.9257 H           1 DVA       0.0524
     89 H19        49.0240   50.0525   79.8777 H           1 DVA       0.1881
     90 H20        46.8640   50.1163   79.5632 H           1 DVA       0.0763
     91 H21        46.9822   51.8337   79.2543 H           1 DVA       0.0763
     92 H22        45.7372   49.5433   81.3603 H           1 DVA       0.1884
     93 H23        45.9141   50.9952   83.7882 H           1 DVA       0.0823
     94 H24        44.7653   49.1153   84.7858 H           1 DVA       0.0606
     95 H25        46.0376   48.5256   83.7043 H           1 DVA       0.0606
     96 H26        44.5182   48.0012   82.2099 H           1 DVA       0.2097
     97 H27        44.5289   52.5526   84.3736 H           1 DVA       0.1883
     98 H28        41.7286   52.3474   84.0696 H           1 DVA       0.0801
     99 H29        43.1827   53.8960   82.0365 H           1 DVA       0.0337
    100 H30        42.2529   55.0214   82.9839 H           1 DVA       0.0337
    101 H31        41.1573   52.5836   81.5151 H           1 DVA       0.0504
    102 H32        41.0290   54.2566   80.9964 H           1 DVA       0.0504
    103 H33        38.7003   54.2797   84.1135 H           1 DVA       0.1814
    104 H34        40.3410   54.5650   84.2527 H           1 DVA       0.1814
    105 H35        40.8486   53.3001   85.8315 H           1 DVA       0.1885
    106 H36        40.5064   54.3210   87.6734 H           1 DVA       0.0817
    107 H37        42.2231   56.2991   86.4074 H           1 DVA       0.0420
    108 H38        42.6731   56.2109   88.1024 H           1 DVA       0.0420
    109 H39        39.9215   56.0402   89.5830 H           1 DVA       0.0729
    110 H40        39.1936   59.6053   87.6888 H           1 DVA       0.1199
    111 H41        38.5614   58.1557   89.6128 H           1 DVA       0.2361
    112 H42        40.8923   52.4405   88.8020 H           1 DVA       0.1885
    113 H43        42.0636   50.7534   89.6781 H           1 DVA       0.0821
    114 H44        42.5922   51.6693   92.1544 H           1 DVA       0.0453
    115 H45        41.0130   51.3365   91.5106 H           1 DVA       0.0453
    116 H46        43.1327   54.3862   90.8758 H           1 DVA       0.0530
    117 H47        39.6760   52.8314   92.7715 H           1 DVA       0.0530
    118 H48        42.4117   56.6222   91.4381 H           1 DVA       0.0525
    119 H49        38.9635   55.0604   93.2967 H           1 DVA       0.0525
    120 H50        40.9858   57.8484   92.7553 H           1 DVA       0.2458
    121 H51        44.4244   52.5319   91.4874 H           1 DVA       0.1884
    122 H52        46.6071   52.1534   91.6415 H           1 DVA       0.0819
    123 H53        46.1166   53.5576   88.9820 H           1 DVA       0.0478
    124 H54        47.7505   53.3475   89.6393 H           1 DVA       0.0478
    125 H55        46.9842   51.6263   88.2456 H           1 DVA       0.1876
    126 H56        46.7125   48.8390   88.2273 H           1 DVA       0.0749
    127 H57        49.5255   49.9895   88.4783 H           1 DVA       0.0599
    128 H58        49.2869   48.6563   87.3083 H           1 DVA       0.0599
    129 H59        48.4575   47.3941   88.8983 H           1 DVA       0.2096
@<TRIPOS>BOND
     1     1     2   1
     2     2     3   1
     3     2     6   1
     4     3     4   1
     5     3     5   1
     6     6     7   2
     7     6     8  am
     8     8     9   1
     9     8    12   1
    10     9    10   1
    11     9    13   1
    12    10    11   1
    13    11    12   1
    14    13    14   2
    15    13    15  am
    16    15    16   1
    17    16    17   1
    18    17    18   2
    19    17    19  am
    20    19    20   1
    21    20    21   1
    22    20    23   1
    23    21    22   2
    24    21    25  am
    25    23    24   1
    26    25    26   1
    27    26    27   1
    28    26    29   1
    29    27    28   2
    30    27    34  am
    31    29    30   1
    32    30    31   1
    33    31    32   2
    34    31    33  am
    35    34    35   1
    36    35    36   1
    37    35    38   1
    38    36    37   2
    39    36    44  am
    40    38    39   1
    41    39    40   1
    42    39    41   2
    43    40    42   2
    44    41    43   1
    45    42    43   1
    46    44    45   1
    47    45    46   1
    48    45    48   1
    49    46    47   2
    50    46    56  am
    51    48    49   1
    52    49    50  ar
    53    49    51  ar
    54    50    52  ar
    55    51    53  ar
    56    52    54  ar
    57    53    54  ar
    58    54    55   1
    59    56    57   1
    60    57    58   1
    61    57    60   1
    62    58    59   2
    63    58    64  am
    64    60    61   1
    65    61    62  ar
    66    61    63  ar
    67    64    65   1
    68    65    66   1
    69    65    69   1
    70    66    67  ar
    71    66    68  ar
    72    69    70   1
    73     1    71   1
    74     1    72   1
    75     1    73   1
    76     2    74   1
    77     3    75   1
    78     4    76   1
    79     4    77   1
    80     4    78   1
    81     5    79   1
    82     5    80   1
    83     5    81   1
    84     9    82   1
    85    10    83   1
    86    10    84   1
    87    11    85   1
    88    11    86   1
    89    12    87   1
    90    12    88   1
    91    15    89   1
    92    16    90   1
    93    16    91   1
    94    19    92   1
    95    20    93   1
    96    23    94   1
    97    23    95   1
    98    24    96   1
    99    25    97   1
   100    26    98   1
   101    29    99   1
   102    29   100   1
   103    30   101   1
   104    30   102   1
   105    33   103   1
   106    33   104   1
   107    34   105   1
   108    35   106   1
   109    38   107   1
   110    38   108   1
   111    41   109   1
   112    42   110   1
   113    43   111   1
   114    44   112   1
   115    45   113   1
   116    48   114   1
   117    48   115   1
   118    50   116   1
   119    51   117   1
   120    52   118   1
   121    53   119   1
   122    55   120   1
   123    56   121   1
   124    57   122   1
   125    60   123   1
   126    60   124   1
   127    64   125   1
   128    65   126   1
   129    69   127   1
   130    69   128   1
   131    70   129   1
@<TRIPOS>SUBSTRUCTURE
     1  DVA      2

