@<TRIPOS>MOLECULE
1zea_ligand_050
   129   131
SMALL
GAST_HUCK
****
This file was generated by PARSER (from files_GN.cpp)

@<TRIPOS>ATOM
      1 N          42.7285   53.3655   95.2267 N.4         1 DVA       0.2381
      2 CA         42.7606   54.6511   94.5122 C.3         1 DVA       0.0675
      3 CB         44.1104   54.8601   93.7221 C.3         1 DVA       0.0139
      4 CG1        45.4026   54.5888   94.5499 C.3         1 DVA      -0.0553
      5 CG2        44.1493   54.0106   92.4191 C.3         1 DVA      -0.0553
      6 C          42.4405   55.7429   95.4451 C.2         1 DVA       0.2295
      7 O          43.2444   55.9103   96.3559 O.2         1 DVA      -0.3905
      8 N          41.3577   56.5457   95.3945 N.am        1 DVA      -0.2471
      9 CA         40.2250   56.4113   94.5084 C.3         1 DVA       0.1339
     10 CB         39.3164   57.6326   94.8015 C.3         1 DVA      -0.0104
     11 CG         40.2516   58.6403   95.4756 C.3         1 DVA      -0.0281
     12 CD         41.2613   57.7369   96.2017 C.3         1 DVA       0.0371
     13 C          39.4512   55.1744   94.6177 C.2         1 DVA       0.2039
     14 O          39.6314   54.4088   95.5578 O.2         1 DVA      -0.3944
     15 N          38.5712   54.8971   93.6662 N.am        1 DVA      -0.2664
     16 CA         37.8085   53.6992   93.4963 C.3         1 DVA       0.1201
     17 C          38.4091   52.8261   92.5056 C.2         1 DVA       0.2008
     18 O          38.3383   51.6124   92.6746 O.2         1 DVA      -0.3947
     19 N          38.9643   53.3410   91.4177 N.am        1 DVA      -0.2618
     20 CA         39.5658   52.6479   90.3154 C.3         1 DVA       0.1539
     21 C          39.9101   53.6796   89.3390 C.2         1 DVA       0.2062
     22 O          39.0257   54.0726   88.5864 O.2         1 DVA      -0.3943
     23 CB         40.7549   51.7353   90.7315 C.3         1 DVA       0.0843
     24 OG         41.5053   51.3246   89.5899 O.3         1 DVA      -0.3903
     25 N          41.0876   54.3064   89.3899 N.am        1 DVA      -0.2635
     26 CA         41.5146   55.4850   88.6837 C.3         1 DVA       0.1330
     27 C          41.5378   55.2921   87.2277 C.2         1 DVA       0.2041
     28 O          40.4691   55.2644   86.6169 O.2         1 DVA      -0.3944
     29 CB         40.6793   56.7249   89.1420 C.3         1 DVA       0.0045
     30 CG         41.1097   58.0891   88.4978 C.3         1 DVA       0.0412
     31 CD         39.9943   58.8025   87.9026 C.2         1 DVA       0.1737
     32 OE1        39.7358   58.6820   86.7129 O.2         1 DVA      -0.3973
     33 NE2        39.1663   59.5002   88.6487 N.am        1 DVA      -0.3009
     34 N          42.6819   55.1422   86.5717 N.am        1 DVA      -0.2625
     35 CA         42.7964   54.8884   85.1516 C.3         1 DVA       0.1369
     36 C          44.1504   55.1609   84.6558 C.2         1 DVA       0.2055
     37 O          44.6870   54.3315   83.9276 O.2         1 DVA      -0.3942
     38 CB         42.2347   53.4425   84.8463 C.3         1 DVA       0.0145
     39 CG         41.1550   53.4041   83.8315 C.2         1 DVA      -0.0027
     40 ND1        41.2280   52.8267   82.6176 N.2         1 DVA      -0.3252
     41 CD2        39.8552   53.8760   84.0117 C.2         1 DVA       0.0291
     42 CE1        40.0127   52.9525   82.0522 C.2         1 DVA       0.0907
     43 NE2        39.1777   53.5813   82.8989 N.pl3       1 DVA      -0.2752
     44 N          44.7749   56.3102   84.9364 N.am        1 DVA      -0.2620
     45 CA         46.1577   56.6598   84.7158 C.3         1 DVA       0.1390
     46 C          46.9770   55.4447   84.8184 C.2         1 DVA       0.2058
     47 O          47.1709   54.9723   85.9387 O.2         1 DVA      -0.3942
     48 CB         46.4527   57.5546   83.4633 C.3         1 DVA       0.0163
     49 CG         45.9914   58.9775   83.4918 C.ar        1 DVA      -0.0493
     50 CD1        46.2437   59.8009   84.6192 C.ar        1 DVA      -0.0685
     51 CD2        45.4348   59.5902   82.3407 C.ar        1 DVA      -0.0685
     52 CE1        45.8961   61.1683   84.6139 C.ar        1 DVA      -0.0398
     53 CE2        45.0861   60.9535   82.3322 C.ar        1 DVA      -0.0398
     54 CZ         45.2962   61.7441   83.4758 C.ar        1 DVA       0.0805
     55 OH         45.0028   63.0690   83.4435 O.3         1 DVA      -0.3376
     56 N          47.4654   54.8367   83.7411 N.am        1 DVA      -0.2620
     57 CA         48.1409   53.5670   83.6879 C.3         1 DVA       0.1423
     58 C          47.4596   52.7604   82.6768 C.2         1 DVA       0.2051
     59 O          47.5337   53.0900   81.4956 O.2         1 DVA      -0.3943
     60 CB         49.6605   53.7541   83.3625 C.3         1 DVA       0.0406
     61 CG         50.3872   54.4845   84.4130 C.2         1 DVA       0.0393
     62 OD1        50.5625   53.9378   85.6397 O.co2       1 DVA      -0.5688
     63 OD2        50.9071   55.7096   84.1690 O.co2       1 DVA      -0.5688
     64 N          46.7005   51.7347   83.0416 N.am        1 DVA      -0.2671
     65 CA         45.9344   50.8856   82.1671 C.3         1 DVA       0.1173
     66 C          46.8380   49.9382   81.4890 C.2         1 DVA       0.0623
     67 O          47.2570   48.8164   82.1251 O.co2       1 DVA      -0.5665
     68 OXT        47.2894   50.1800   80.2332 O.co2       1 DVA      -0.5665
     69 CB         44.8363   50.1501   82.9728 C.3         1 DVA       0.0789
     70 OG         43.8104   49.6263   82.1340 O.3         1 DVA      -0.3910
     71 H1         42.9157   52.6015   94.5738 H           1 DVA       0.2015
     72 H2         41.8050   53.2292   95.6440 H           1 DVA       0.2015
     73 H3         43.4349   53.3593   95.9666 H           1 DVA       0.2015
     74 H4         41.9735   54.5793   93.7624 H           1 DVA       0.1101
     75 H5         44.1493   55.9075   93.4023 H           1 DVA       0.0376
     76 H6         45.4401   53.5504   94.8831 H           1 DVA       0.0236
     77 H7         45.4577   55.2384   95.4226 H           1 DVA       0.0236
     78 H8         46.2903   54.7849   93.9424 H           1 DVA       0.0236
     79 H9         44.1061   52.9438   92.6480 H           1 DVA       0.0236
     80 H10        45.0666   54.2082   91.8572 H           1 DVA       0.0236
     81 H11        43.3062   54.2645   91.7736 H           1 DVA       0.0236
     82 H12        40.6019   56.5014   93.4821 H           1 DVA       0.0802
     83 H13        38.5068   57.3890   95.5014 H           1 DVA       0.0313
     84 H14        38.8764   58.0444   93.8842 H           1 DVA       0.0313
     85 H15        39.7209   59.2960   96.1710 H           1 DVA       0.0287
     86 H16        40.7581   59.2440   94.7179 H           1 DVA       0.0287
     87 H17        42.2146   58.2689   96.2862 H           1 DVA       0.0524
     88 H18        40.9024   57.4750   97.2009 H           1 DVA       0.0524
     89 H19        38.5000   55.5402   92.9395 H           1 DVA       0.1881
     90 H20        36.8182   53.9989   93.1439 H           1 DVA       0.0763
     91 H21        37.6681   53.1752   94.4488 H           1 DVA       0.0763
     92 H22        38.9063   54.3016   91.3297 H           1 DVA       0.1884
     93 H23        38.7929   52.0064   89.8783 H           1 DVA       0.0823
     94 H24        40.3947   50.8352   91.2289 H           1 DVA       0.0606
     95 H25        41.4223   52.2511   91.4219 H           1 DVA       0.0606
     96 H26        41.6717   50.3679   89.7122 H           1 DVA       0.2097
     97 H27        41.7231   53.9627   90.0399 H           1 DVA       0.1883
     98 H28        42.5407   55.6618   89.0285 H           1 DVA       0.0801
     99 H29        40.7730   56.8147   90.2309 H           1 DVA       0.0337
    100 H30        39.6215   56.5211   88.9409 H           1 DVA       0.0337
    101 H31        41.8825   57.9315   87.7402 H           1 DVA       0.0504
    102 H32        41.5612   58.7264   89.2624 H           1 DVA       0.0504
    103 H33        38.3913   59.9192   88.2453 H           1 DVA       0.1814
    104 H34        39.3178   59.5904   89.6035 H           1 DVA       0.1814
    105 H35        43.5122   55.1849   87.0864 H           1 DVA       0.1885
    106 H36        42.1722   55.6260   84.6419 H           1 DVA       0.0817
    107 H37        41.8255   52.9788   85.7535 H           1 DVA       0.0420
    108 H38        43.0470   52.7873   84.5241 H           1 DVA       0.0420
    109 H39        39.4763   54.3343   84.8459 H           1 DVA       0.0729
    110 H40        39.7532   52.5935   81.1278 H           1 DVA       0.1199
    111 H41        38.2330   53.7631   82.7595 H           1 DVA       0.2361
    112 H42        44.2632   56.9447   85.4701 H           1 DVA       0.1885
    113 H43        46.4399   57.2771   85.5732 H           1 DVA       0.0821
    114 H44        46.0535   57.0508   82.5740 H           1 DVA       0.0453
    115 H45        47.5398   57.6040   83.3370 H           1 DVA       0.0453
    116 H46        46.7094   59.4171   85.4415 H           1 DVA       0.0530
    117 H47        45.3152   59.0554   81.4752 H           1 DVA       0.0530
    118 H48        46.0934   61.7434   85.4330 H           1 DVA       0.0525
    119 H49        44.6809   61.3728   81.4906 H           1 DVA       0.0525
    120 H50        44.2064   63.1798   84.0051 H           1 DVA       0.2458
    121 H51        47.3240   55.2705   82.8878 H           1 DVA       0.1884
    122 H52        48.0803   53.0510   84.6500 H           1 DVA       0.0819
    123 H53        49.7683   54.2913   82.4174 H           1 DVA       0.0478
    124 H54        50.1247   52.7686   83.2449 H           1 DVA       0.0478
    125 H55        46.6216   51.5575   83.9946 H           1 DVA       0.1876
    126 H56        45.4190   51.5032   81.4173 H           1 DVA       0.0749
    127 H57        44.3654   50.8543   83.6628 H           1 DVA       0.0599
    128 H58        45.2656   49.3318   83.5628 H           1 DVA       0.0599
    129 H59        44.2722   49.0755   81.4655 H           1 DVA       0.2096
@<TRIPOS>BOND
     1     1     2   1
     2     2     3   1
     3     2     6   1
     4     3     4   1
     5     3     5   1
     6     6     7   2
     7     6     8  am
     8     8     9   1
     9     8    12   1
    10     9    10   1
    11     9    13   1
    12    10    11   1
    13    11    12   1
    14    13    14   2
    15    13    15  am
    16    15    16   1
    17    16    17   1
    18    17    18   2
    19    17    19  am
    20    19    20   1
    21    20    21   1
    22    20    23   1
    23    21    22   2
    24    21    25  am
    25    23    24   1
    26    25    26   1
    27    26    27   1
    28    26    29   1
    29    27    28   2
    30    27    34  am
    31    29    30   1
    32    30    31   1
    33    31    32   2
    34    31    33  am
    35    34    35   1
    36    35    36   1
    37    35    38   1
    38    36    37   2
    39    36    44  am
    40    38    39   1
    41    39    40   1
    42    39    41   2
    43    40    42   2
    44    41    43   1
    45    42    43   1
    46    44    45   1
    47    45    46   1
    48    45    48   1
    49    46    47   2
    50    46    56  am
    51    48    49   1
    52    49    50  ar
    53    49    51  ar
    54    50    52  ar
    55    51    53  ar
    56    52    54  ar
    57    53    54  ar
    58    54    55   1
    59    56    57   1
    60    57    58   1
    61    57    60   1
    62    58    59   2
    63    58    64  am
    64    60    61   1
    65    61    62  ar
    66    61    63  ar
    67    64    65   1
    68    65    66   1
    69    65    69   1
    70    66    67  ar
    71    66    68  ar
    72    69    70   1
    73     1    71   1
    74     1    72   1
    75     1    73   1
    76     2    74   1
    77     3    75   1
    78     4    76   1
    79     4    77   1
    80     4    78   1
    81     5    79   1
    82     5    80   1
    83     5    81   1
    84     9    82   1
    85    10    83   1
    86    10    84   1
    87    11    85   1
    88    11    86   1
    89    12    87   1
    90    12    88   1
    91    15    89   1
    92    16    90   1
    93    16    91   1
    94    19    92   1
    95    20    93   1
    96    23    94   1
    97    23    95   1
    98    24    96   1
    99    25    97   1
   100    26    98   1
   101    29    99   1
   102    29   100   1
   103    30   101   1
   104    30   102   1
   105    33   103   1
   106    33   104   1
   107    34   105   1
   108    35   106   1
   109    38   107   1
   110    38   108   1
   111    41   109   1
   112    42   110   1
   113    43   111   1
   114    44   112   1
   115    45   113   1
   116    48   114   1
   117    48   115   1
   118    50   116   1
   119    51   117   1
   120    52   118   1
   121    53   119   1
   122    55   120   1
   123    56   121   1
   124    57   122   1
   125    60   123   1
   126    60   124   1
   127    64   125   1
   128    65   126   1
   129    69   127   1
   130    69   128   1
   131    70   129   1
@<TRIPOS>SUBSTRUCTURE
     1  DVA      2

