@<TRIPOS>MOLECULE
1zea_ligand_096
   129   131
SMALL
GAST_HUCK
****
This file was generated by PARSER (from files_GN.cpp)

@<TRIPOS>ATOM
      1 N          50.9188   49.9185   77.0493 N.4         1 DVA       0.2381
      2 CA         51.7554   51.0144   77.5677 C.3         1 DVA       0.0675
      3 CB         52.9499   51.3607   76.6095 C.3         1 DVA       0.0139
      4 CG1        53.8349   50.1452   76.2018 C.3         1 DVA      -0.0553
      5 CG2        52.4595   52.1034   75.3306 C.3         1 DVA      -0.0553
      6 C          52.1698   50.7241   78.9490 C.2         1 DVA       0.2295
      7 O          52.8511   49.7141   79.0955 O.2         1 DVA      -0.3905
      8 N          51.8673   51.4559   80.0399 N.am        1 DVA      -0.2471
      9 CA         51.0452   52.6434   80.0702 C.3         1 DVA       0.1339
     10 CB         51.3114   53.2823   81.4572 C.3         1 DVA      -0.0104
     11 CG         51.7653   52.1115   82.3360 C.3         1 DVA      -0.0281
     12 CD         52.4174   51.1455   81.3337 C.3         1 DVA       0.0371
     13 C          49.6237   52.3772   79.8448 C.2         1 DVA       0.2039
     14 O          49.0510   53.0267   78.9796 O.2         1 DVA      -0.3944
     15 N          48.9757   51.4568   80.5542 N.am        1 DVA      -0.2664
     16 CA         47.5802   51.1382   80.4679 C.3         1 DVA       0.1201
     17 C          46.9798   51.1549   81.7854 C.2         1 DVA       0.2008
     18 O          47.3877   51.9822   82.5920 O.2         1 DVA      -0.3947
     19 N          46.0122   50.2960   82.0958 N.am        1 DVA      -0.2618
     20 CA         45.4171   50.1010   83.3903 C.3         1 DVA       0.1539
     21 C          44.3460   51.0585   83.6585 C.2         1 DVA       0.2062
     22 O          43.2098   50.8461   83.2429 O.2         1 DVA      -0.3943
     23 CB         44.9700   48.6196   83.5397 C.3         1 DVA       0.0843
     24 OG         43.8180   48.3118   82.7541 O.3         1 DVA      -0.3903
     25 N          44.6600   52.2207   84.2145 N.am        1 DVA      -0.2635
     26 CA         43.7936   53.3234   84.5073 C.3         1 DVA       0.1330
     27 C          44.5819   54.2793   85.2847 C.2         1 DVA       0.2041
     28 O          45.3569   55.0224   84.6960 O.2         1 DVA      -0.3944
     29 CB         43.0540   53.9776   83.2843 C.3         1 DVA       0.0045
     30 CG         43.5899   53.6372   81.8501 C.3         1 DVA       0.0412
     31 CD         42.5491   53.6197   80.8239 C.2         1 DVA       0.1737
     32 OE1        42.7965   53.9966   79.6881 O.2         1 DVA      -0.3973
     33 NE2        41.3665   53.0817   81.0415 N.am        1 DVA      -0.3009
     34 N          44.5051   54.2702   86.6101 N.am        1 DVA      -0.2625
     35 CA         45.2975   55.0288   87.5408 C.3         1 DVA       0.1369
     36 C          44.5781   55.0416   88.8100 C.2         1 DVA       0.2055
     37 O          44.2327   53.9799   89.3211 O.2         1 DVA      -0.3942
     38 CB         46.7330   54.4322   87.6860 C.3         1 DVA       0.0145
     39 CG         47.6680   55.1933   88.5435 C.2         1 DVA      -0.0027
     40 ND1        47.4746   56.4169   89.0785 N.2         1 DVA      -0.3252
     41 CD2        48.9300   54.7650   88.9418 C.2         1 DVA       0.0291
     42 CE1        48.5707   56.7243   89.7870 C.2         1 DVA       0.0907
     43 NE2        49.4540   55.7092   89.7174 N.pl3       1 DVA      -0.2752
     44 N          44.2753   56.1975   89.3883 N.am        1 DVA      -0.2620
     45 CA         43.4705   56.3979   90.5709 C.3         1 DVA       0.1390
     46 C          43.4554   57.8078   90.9648 C.2         1 DVA       0.2058
     47 O          43.8181   58.6802   90.1836 O.2         1 DVA      -0.3942
     48 CB         42.0167   55.8074   90.4413 C.3         1 DVA       0.0163
     49 CG         41.5909   55.4658   89.0506 C.ar        1 DVA      -0.0493
     50 CD1        41.3417   56.4874   88.1052 C.ar        1 DVA      -0.0685
     51 CD2        41.4796   54.1190   88.6423 C.ar        1 DVA      -0.0685
     52 CE1        40.9930   56.1632   86.7786 C.ar        1 DVA      -0.0398
     53 CE2        41.1339   53.7955   87.3171 C.ar        1 DVA      -0.0398
     54 CZ         40.8881   54.8177   86.3844 C.ar        1 DVA       0.0805
     55 OH         40.5312   54.5170   85.1142 O.3         1 DVA      -0.3376
     56 N          43.0999   58.1099   92.2062 N.am        1 DVA      -0.2620
     57 CA         43.1027   59.4031   92.8296 C.3         1 DVA       0.1423
     58 C          41.8383   59.5966   93.5206 C.2         1 DVA       0.2051
     59 O          41.5277   58.8463   94.4442 O.2         1 DVA      -0.3943
     60 CB         44.3580   59.5691   93.7423 C.3         1 DVA       0.0406
     61 CG         44.5957   58.5842   94.8207 C.2         1 DVA       0.0393
     62 OD1        43.8904   57.4341   94.9494 O.co2       1 DVA      -0.5688
     63 OD2        45.6325   58.7735   95.6659 O.co2       1 DVA      -0.5688
     64 N          41.0175   60.5803   93.1667 N.am        1 DVA      -0.2671
     65 CA         39.7639   60.9560   93.7585 C.3         1 DVA       0.1173
     66 C          38.6956   59.9268   93.6745 C.2         1 DVA       0.0623
     67 O          38.9617   58.6020   93.6073 O.co2       1 DVA      -0.5665
     68 OXT        37.4109   60.3195   93.5246 O.co2       1 DVA      -0.5665
     69 CB         39.9271   61.4812   95.2131 C.3         1 DVA       0.0789
     70 OG         41.0238   62.3902   95.3073 O.3         1 DVA      -0.3910
     71 H1         50.5903   50.1479   76.1102 H           1 DVA       0.2015
     72 H2         50.1209   49.7726   77.6695 H           1 DVA       0.2015
     73 H3         51.4507   49.0516   77.0018 H           1 DVA       0.2015
     74 H4         51.0962   51.8799   77.5632 H           1 DVA       0.1101
     75 H5         53.6037   52.0664   77.1372 H           1 DVA       0.0376
     76 H6         54.6218   50.4605   75.5117 H           1 DVA       0.0236
     77 H7         53.2377   49.3735   75.7132 H           1 DVA       0.0236
     78 H8         54.3250   49.7113   77.0739 H           1 DVA       0.0236
     79 H9         51.8918   52.9977   75.6012 H           1 DVA       0.0236
     80 H10        51.8223   51.4564   74.7235 H           1 DVA       0.0236
     81 H11        53.3107   52.4221   74.7220 H           1 DVA       0.0236
     82 H12        51.4234   53.3553   79.3241 H           1 DVA       0.0802
     83 H13        50.4375   53.7848   81.8854 H           1 DVA       0.0313
     84 H14        52.1269   54.0121   81.3896 H           1 DVA       0.0313
     85 H15        50.8933   51.6469   82.8090 H           1 DVA       0.0287
     86 H16        52.4657   52.4280   83.1157 H           1 DVA       0.0287
     87 H17        53.5005   51.2978   81.3162 H           1 DVA       0.0524
     88 H18        52.2071   50.1121   81.6222 H           1 DVA       0.0524
     89 H19        49.4960   50.9629   81.2110 H           1 DVA       0.1881
     90 H20        47.4960   50.1483   80.0165 H           1 DVA       0.0763
     91 H21        47.0257   51.8344   79.8334 H           1 DVA       0.0763
     92 H22        45.7406   49.6847   81.3935 H           1 DVA       0.1884
     93 H23        46.2147   50.2340   84.1311 H           1 DVA       0.0823
     94 H24        44.7464   48.3956   84.5851 H           1 DVA       0.0606
     95 H25        45.7817   47.9669   83.2182 H           1 DVA       0.0606
     96 H26        44.1411   48.2639   81.8310 H           1 DVA       0.2097
     97 H27        45.5946   52.3339   84.4474 H           1 DVA       0.1883
     98 H28        43.0098   52.9166   85.1588 H           1 DVA       0.0801
     99 H29        43.0625   55.0726   83.3946 H           1 DVA       0.0337
    100 H30        41.9980   53.6756   83.3591 H           1 DVA       0.0337
    101 H31        44.0495   52.6437   81.8447 H           1 DVA       0.0504
    102 H32        44.3674   54.3738   81.5841 H           1 DVA       0.0504
    103 H33        40.7137   53.0564   80.3189 H           1 DVA       0.1814
    104 H34        41.1473   52.7151   81.9168 H           1 DVA       0.1814
    105 H35        43.8634   53.6545   86.9988 H           1 DVA       0.1885
    106 H36        45.3869   56.0524   87.1555 H           1 DVA       0.0817
    107 H37        47.1873   54.3578   86.6957 H           1 DVA       0.0420
    108 H38        46.6470   53.4194   88.0889 H           1 DVA       0.0420
    109 H39        49.3720   53.8729   88.7016 H           1 DVA       0.0729
    110 H40        48.7130   57.5879   90.3085 H           1 DVA       0.1199
    111 H41        50.3269   55.6901   90.1377 H           1 DVA       0.2361
    112 H42        44.6028   57.0001   88.9431 H           1 DVA       0.1885
    113 H43        43.9909   55.8668   91.3795 H           1 DVA       0.0821
    114 H44        41.2736   56.4964   90.8587 H           1 DVA       0.0453
    115 H45        41.9750   54.9148   91.0734 H           1 DVA       0.0453
    116 H46        41.4235   57.4723   88.3743 H           1 DVA       0.0530
    117 H47        41.6628   53.3555   89.3008 H           1 DVA       0.0530
    118 H48        40.8177   56.9138   86.1093 H           1 DVA       0.0525
    119 H49        41.0698   52.8160   87.0391 H           1 DVA       0.0525
    120 H50        39.8011   53.8622   85.1932 H           1 DVA       0.2458
    121 H51        42.8500   57.3621   92.7765 H           1 DVA       0.1884
    122 H52        43.1938   60.1826   92.0641 H           1 DVA       0.0819
    123 H53        44.3097   60.5560   94.2075 H           1 DVA       0.0478
    124 H54        45.2472   59.5563   93.1070 H           1 DVA       0.0478
    125 H55        41.3054   61.1310   92.4155 H           1 DVA       0.1876
    126 H56        39.4098   61.7997   93.1577 H           1 DVA       0.0749
    127 H57        40.0969   60.6561   95.9134 H           1 DVA       0.0599
    128 H58        39.0217   62.0175   95.5216 H           1 DVA       0.0599
    129 H59        41.0207   62.6911   96.2461 H           1 DVA       0.2096
@<TRIPOS>BOND
     1     1     2   1
     2     2     3   1
     3     2     6   1
     4     3     4   1
     5     3     5   1
     6     6     7   2
     7     6     8  am
     8     8     9   1
     9     8    12   1
    10     9    10   1
    11     9    13   1
    12    10    11   1
    13    11    12   1
    14    13    14   2
    15    13    15  am
    16    15    16   1
    17    16    17   1
    18    17    18   2
    19    17    19  am
    20    19    20   1
    21    20    21   1
    22    20    23   1
    23    21    22   2
    24    21    25  am
    25    23    24   1
    26    25    26   1
    27    26    27   1
    28    26    29   1
    29    27    28   2
    30    27    34  am
    31    29    30   1
    32    30    31   1
    33    31    32   2
    34    31    33  am
    35    34    35   1
    36    35    36   1
    37    35    38   1
    38    36    37   2
    39    36    44  am
    40    38    39   1
    41    39    40   1
    42    39    41   2
    43    40    42   2
    44    41    43   1
    45    42    43   1
    46    44    45   1
    47    45    46   1
    48    45    48   1
    49    46    47   2
    50    46    56  am
    51    48    49   1
    52    49    50  ar
    53    49    51  ar
    54    50    52  ar
    55    51    53  ar
    56    52    54  ar
    57    53    54  ar
    58    54    55   1
    59    56    57   1
    60    57    58   1
    61    57    60   1
    62    58    59   2
    63    58    64  am
    64    60    61   1
    65    61    62  ar
    66    61    63  ar
    67    64    65   1
    68    65    66   1
    69    65    69   1
    70    66    67  ar
    71    66    68  ar
    72    69    70   1
    73     1    71   1
    74     1    72   1
    75     1    73   1
    76     2    74   1
    77     3    75   1
    78     4    76   1
    79     4    77   1
    80     4    78   1
    81     5    79   1
    82     5    80   1
    83     5    81   1
    84     9    82   1
    85    10    83   1
    86    10    84   1
    87    11    85   1
    88    11    86   1
    89    12    87   1
    90    12    88   1
    91    15    89   1
    92    16    90   1
    93    16    91   1
    94    19    92   1
    95    20    93   1
    96    23    94   1
    97    23    95   1
    98    24    96   1
    99    25    97   1
   100    26    98   1
   101    29    99   1
   102    29   100   1
   103    30   101   1
   104    30   102   1
   105    33   103   1
   106    33   104   1
   107    34   105   1
   108    35   106   1
   109    38   107   1
   110    38   108   1
   111    41   109   1
   112    42   110   1
   113    43   111   1
   114    44   112   1
   115    45   113   1
   116    48   114   1
   117    48   115   1
   118    50   116   1
   119    51   117   1
   120    52   118   1
   121    53   119   1
   122    55   120   1
   123    56   121   1
   124    57   122   1
   125    60   123   1
   126    60   124   1
   127    64   125   1
   128    65   126   1
   129    69   127   1
   130    69   128   1
   131    70   129   1
@<TRIPOS>SUBSTRUCTURE
     1  DVA      2

