@<TRIPOS>MOLECULE
1zea_ligand_070
   129   131
SMALL
GAST_HUCK
****
This file was generated by PARSER (from files_GN.cpp)

@<TRIPOS>ATOM
      1 N          43.4499   54.5368   95.0273 N.4         1 DVA       0.2381
      2 CA         43.2963   55.7292   94.1687 C.3         1 DVA       0.0675
      3 CB         44.5920   56.0136   93.3234 C.3         1 DVA       0.0139
      4 CG1        45.9221   55.9973   94.1381 C.3         1 DVA      -0.0553
      5 CG2        44.7155   55.0355   92.1173 C.3         1 DVA      -0.0553
      6 C          42.8317   56.8589   94.9888 C.2         1 DVA       0.2295
      7 O          43.6257   57.2592   95.8331 O.2         1 DVA      -0.3905
      8 N          41.6240   57.4594   94.9062 N.am        1 DVA      -0.2471
      9 CA         40.4899   57.0213   94.1223 C.3         1 DVA       0.1339
     10 CB         39.3685   58.0511   94.4054 C.3         1 DVA      -0.0104
     11 CG         40.1199   59.2931   94.8904 C.3         1 DVA      -0.0281
     12 CD         41.3578   58.7015   95.5832 C.3         1 DVA       0.0371
     13 C          40.0018   55.6719   94.3834 C.2         1 DVA       0.2039
     14 O          40.3841   55.0597   95.3740 O.2         1 DVA      -0.3944
     15 N          39.1293   55.1346   93.5415 N.am        1 DVA      -0.2664
     16 CA         38.6916   53.7715   93.5204 C.3         1 DVA       0.1201
     17 C          38.7883   53.2414   92.1734 C.2         1 DVA       0.2008
     18 O          37.7762   52.8078   91.6348 O.2         1 DVA      -0.3947
     19 N          39.9593   53.2562   91.5434 N.am        1 DVA      -0.2618
     20 CA         40.2298   52.7745   90.2171 C.3         1 DVA       0.1539
     21 C          40.3954   53.9160   89.3230 C.2         1 DVA       0.2062
     22 O          39.4410   54.2407   88.6300 O.2         1 DVA      -0.3943
     23 CB         41.4472   51.8093   90.2681 C.3         1 DVA       0.0843
     24 OG         41.8639   51.4236   88.9606 O.3         1 DVA      -0.3903
     25 N          41.5457   54.5834   89.2544 N.am        1 DVA      -0.2635
     26 CA         41.8521   55.7032   88.4132 C.3         1 DVA       0.1330
     27 C          41.7471   55.3478   86.9999 C.2         1 DVA       0.2041
     28 O          40.8088   55.7556   86.3231 O.2         1 DVA      -0.3944
     29 CB         41.0210   56.9538   88.8487 C.3         1 DVA       0.0045
     30 CG         41.2673   58.2386   87.9864 C.3         1 DVA       0.0412
     31 CD         40.0291   58.8814   87.5779 C.2         1 DVA       0.1737
     32 OE1        39.6166   58.7648   86.4316 O.2         1 DVA      -0.3973
     33 NE2        39.2695   59.4993   88.4561 N.am        1 DVA      -0.3009
     34 N          42.6344   54.5094   86.4778 N.am        1 DVA      -0.2625
     35 CA         42.6285   54.0097   85.1288 C.3         1 DVA       0.1369
     36 C          43.9318   53.4106   84.8360 C.2         1 DVA       0.2055
     37 O          44.0312   52.2523   84.4434 O.2         1 DVA      -0.3942
     38 CB         41.3668   53.0908   84.8875 C.3         1 DVA       0.0145
     39 CG         40.5153   53.5675   83.7747 C.2         1 DVA      -0.0027
     40 ND1        40.8992   53.6295   82.4896 N.2         1 DVA      -0.3252
     41 CD2        39.2153   54.0630   83.8552 C.2         1 DVA       0.0291
     42 CE1        39.8722   54.1439   81.7942 C.2         1 DVA       0.0907
     43 NE2        38.8519   54.4075   82.6184 N.pl3       1 DVA      -0.2752
     44 N          45.0189   54.1538   85.0033 N.am        1 DVA      -0.2620
     45 CA         46.3928   53.7558   84.8405 C.3         1 DVA       0.1390
     46 C          47.1385   54.6977   83.9933 C.2         1 DVA       0.2058
     47 O          48.3224   54.4602   83.7776 O.2         1 DVA      -0.3942
     48 CB         47.0317   53.5925   86.2657 C.3         1 DVA       0.0163
     49 CG         47.6497   52.2582   86.4895 C.ar        1 DVA      -0.0493
     50 CD1        49.0531   52.0955   86.5596 C.ar        1 DVA      -0.0685
     51 CD2        46.8305   51.1143   86.6489 C.ar        1 DVA      -0.0685
     52 CE1        49.6226   50.8255   86.7626 C.ar        1 DVA      -0.0398
     53 CE2        47.4000   49.8401   86.8563 C.ar        1 DVA      -0.0398
     54 CZ         48.8015   49.6933   86.9154 C.ar        1 DVA       0.0805
     55 OH         49.3709   48.4759   87.1155 O.3         1 DVA      -0.3376
     56 N          46.5680   55.7594   83.4405 N.am        1 DVA      -0.2620
     57 CA         47.1911   56.7935   82.6613 C.3         1 DVA       0.1423
     58 C          46.9599   56.5154   81.2478 C.2         1 DVA       0.2051
     59 O          45.8069   56.3210   80.8655 O.2         1 DVA      -0.3943
     60 CB         46.6729   58.2131   83.0483 C.3         1 DVA       0.0406
     61 CG         46.3817   58.4018   84.4862 C.2         1 DVA       0.0393
     62 OD1        45.1831   58.8934   84.8912 O.co2       1 DVA      -0.5688
     63 OD2        47.2782   58.0365   85.4400 O.co2       1 DVA      -0.5688
     64 N          47.9798   56.4820   80.4042 N.am        1 DVA      -0.2671
     65 CA         48.0093   56.2700   78.9786 C.3         1 DVA       0.1173
     66 C          48.9038   55.1212   78.7154 C.2         1 DVA       0.0623
     67 O          48.6010   53.8860   79.1808 O.co2       1 DVA      -0.5665
     68 OXT        50.0529   55.2881   78.0219 O.co2       1 DVA      -0.5665
     69 CB         46.6739   56.0734   78.1913 C.3         1 DVA       0.0789
     70 OG         45.7273   57.1043   78.4983 O.3         1 DVA      -0.3910
     71 H1         43.7439   53.7341   94.4604 H           1 DVA       0.2015
     72 H2         42.5554   54.3162   95.4758 H           1 DVA       0.2015
     73 H3         44.1529   54.7155   95.7530 H           1 DVA       0.2015
     74 H4         42.5168   55.4625   93.4556 H           1 DVA       0.1101
     75 H5         44.4917   57.0162   92.8962 H           1 DVA       0.0376
     76 H6         46.1025   55.0097   94.5666 H           1 DVA       0.0236
     77 H7         45.9010   56.7282   94.9457 H           1 DVA       0.0236
     78 H8         46.7653   56.2492   93.4923 H           1 DVA       0.0236
     79 H9         44.7990   54.0043   92.4630 H           1 DVA       0.0236
     80 H10        45.5942   55.2733   91.5169 H           1 DVA       0.0236
     81 H11        43.8394   55.1167   91.4718 H           1 DVA       0.0236
     82 H12        40.7804   57.0975   93.0697 H           1 DVA       0.0802
     83 H13        38.6968   57.7201   95.2055 H           1 DVA       0.0313
     84 H14        38.7757   58.2652   93.5126 H           1 DVA       0.0313
     85 H15        39.5177   59.8989   95.5759 H           1 DVA       0.0287
     86 H16        40.4207   59.9059   94.0339 H           1 DVA       0.0287
     87 H17        42.1885   59.4129   95.4923 H           1 DVA       0.0524
     88 H18        41.1578   58.5157   96.6450 H           1 DVA       0.0524
     89 H19        38.7891   55.7021   92.8334 H           1 DVA       0.1881
     90 H20        37.6552   53.7434   93.8735 H           1 DVA       0.0763
     91 H21        39.2875   53.1322   94.1778 H           1 DVA       0.0763
     92 H22        40.7021   53.6623   92.0166 H           1 DVA       0.1884
     93 H23        39.3855   52.1719   89.8625 H           1 DVA       0.0823
     94 H24        41.1768   50.9022   90.8206 H           1 DVA       0.0606
     95 H25        42.2946   52.2777   90.7754 H           1 DVA       0.0606
     96 H26        42.5588   50.7443   89.1035 H           1 DVA       0.2097
     97 H27        42.2587   54.2762   89.8279 H           1 DVA       0.1883
     98 H28        42.8951   55.9631   88.6043 H           1 DVA       0.0801
     99 H29        41.2692   57.1974   89.8887 H           1 DVA       0.0337
    100 H30        39.9580   56.6844   88.8361 H           1 DVA       0.0337
    101 H31        41.8595   57.9958   87.0966 H           1 DVA       0.0504
    102 H32        41.8622   58.9650   88.5534 H           1 DVA       0.0504
    103 H33        38.4085   59.8527   88.1859 H           1 DVA       0.1814
    104 H34        39.5453   59.5595   89.3851 H           1 DVA       0.1814
    105 H35        43.3654   54.2217   87.0512 H           1 DVA       0.1885
    106 H36        42.5697   54.8846   84.4655 H           1 DVA       0.0817
    107 H37        40.7546   53.0442   85.7941 H           1 DVA       0.0420
    108 H38        41.6350   52.0531   84.6694 H           1 DVA       0.0420
    109 H39        38.6508   54.1537   84.7013 H           1 DVA       0.0729
    110 H40        39.8742   54.3072   80.7916 H           1 DVA       0.1199
    111 H41        37.9955   54.7855   82.3692 H           1 DVA       0.2361
    112 H42        44.8780   55.0516   85.3439 H           1 DVA       0.1885
    113 H43        46.4330   52.8038   84.3012 H           1 DVA       0.0821
    114 H44        46.2791   53.7305   87.0452 H           1 DVA       0.0453
    115 H45        47.7668   54.3817   86.4437 H           1 DVA       0.0453
    116 H46        49.6741   52.9020   86.4527 H           1 DVA       0.0530
    117 H47        45.8123   51.1999   86.6137 H           1 DVA       0.0530
    118 H48        50.6411   50.7244   86.8040 H           1 DVA       0.0525
    119 H49        46.7900   49.0271   86.9652 H           1 DVA       0.0525
    120 H50        48.6455   47.8642   87.3649 H           1 DVA       0.2458
    121 H51        45.6042   55.8556   83.5549 H           1 DVA       0.1884
    122 H52        48.2690   56.8053   82.8700 H           1 DVA       0.0819
    123 H53        45.7589   58.4587   82.4914 H           1 DVA       0.0478
    124 H54        47.4216   58.9634   82.7722 H           1 DVA       0.0478
    125 H55        48.8653   56.6371   80.7894 H           1 DVA       0.1876
    126 H56        48.4748   57.1679   78.5525 H           1 DVA       0.0749
    127 H57        46.2125   55.1198   78.4496 H           1 DVA       0.0599
    128 H58        46.8665   56.0865   77.1103 H           1 DVA       0.0599
    129 H59        46.1992   57.9600   78.3057 H           1 DVA       0.2096
@<TRIPOS>BOND
     1     1     2   1
     2     2     3   1
     3     2     6   1
     4     3     4   1
     5     3     5   1
     6     6     7   2
     7     6     8  am
     8     8     9   1
     9     8    12   1
    10     9    10   1
    11     9    13   1
    12    10    11   1
    13    11    12   1
    14    13    14   2
    15    13    15  am
    16    15    16   1
    17    16    17   1
    18    17    18   2
    19    17    19  am
    20    19    20   1
    21    20    21   1
    22    20    23   1
    23    21    22   2
    24    21    25  am
    25    23    24   1
    26    25    26   1
    27    26    27   1
    28    26    29   1
    29    27    28   2
    30    27    34  am
    31    29    30   1
    32    30    31   1
    33    31    32   2
    34    31    33  am
    35    34    35   1
    36    35    36   1
    37    35    38   1
    38    36    37   2
    39    36    44  am
    40    38    39   1
    41    39    40   1
    42    39    41   2
    43    40    42   2
    44    41    43   1
    45    42    43   1
    46    44    45   1
    47    45    46   1
    48    45    48   1
    49    46    47   2
    50    46    56  am
    51    48    49   1
    52    49    50  ar
    53    49    51  ar
    54    50    52  ar
    55    51    53  ar
    56    52    54  ar
    57    53    54  ar
    58    54    55   1
    59    56    57   1
    60    57    58   1
    61    57    60   1
    62    58    59   2
    63    58    64  am
    64    60    61   1
    65    61    62  ar
    66    61    63  ar
    67    64    65   1
    68    65    66   1
    69    65    69   1
    70    66    67  ar
    71    66    68  ar
    72    69    70   1
    73     1    71   1
    74     1    72   1
    75     1    73   1
    76     2    74   1
    77     3    75   1
    78     4    76   1
    79     4    77   1
    80     4    78   1
    81     5    79   1
    82     5    80   1
    83     5    81   1
    84     9    82   1
    85    10    83   1
    86    10    84   1
    87    11    85   1
    88    11    86   1
    89    12    87   1
    90    12    88   1
    91    15    89   1
    92    16    90   1
    93    16    91   1
    94    19    92   1
    95    20    93   1
    96    23    94   1
    97    23    95   1
    98    24    96   1
    99    25    97   1
   100    26    98   1
   101    29    99   1
   102    29   100   1
   103    30   101   1
   104    30   102   1
   105    33   103   1
   106    33   104   1
   107    34   105   1
   108    35   106   1
   109    38   107   1
   110    38   108   1
   111    41   109   1
   112    42   110   1
   113    43   111   1
   114    44   112   1
   115    45   113   1
   116    48   114   1
   117    48   115   1
   118    50   116   1
   119    51   117   1
   120    52   118   1
   121    53   119   1
   122    55   120   1
   123    56   121   1
   124    57   122   1
   125    60   123   1
   126    60   124   1
   127    64   125   1
   128    65   126   1
   129    69   127   1
   130    69   128   1
   131    70   129   1
@<TRIPOS>SUBSTRUCTURE
     1  DVA      2

