@<TRIPOS>MOLECULE
1zea_ligand_076
   129   131
SMALL
GAST_HUCK
****
This file was generated by PARSER (from files_GN.cpp)

@<TRIPOS>ATOM
      1 N          45.6333   48.1457   93.9902 N.4         1 DVA       0.2381
      2 CA         46.3997   48.3323   92.7419 C.3         1 DVA       0.0675
      3 CB         46.8615   46.9597   92.1325 C.3         1 DVA       0.0139
      4 CG1        45.6717   45.9827   91.9175 C.3         1 DVA      -0.0553
      5 CG2        47.6419   47.1250   90.7947 C.3         1 DVA      -0.0553
      6 C          47.5120   49.2521   93.0338 C.2         1 DVA       0.2295
      7 O          48.4272   48.7636   93.6942 O.2         1 DVA      -0.3905
      8 N          47.6017   50.5360   92.6416 N.am        1 DVA      -0.2471
      9 CA         46.5908   51.2761   91.9221 C.3         1 DVA       0.1339
     10 CB         47.3338   52.5272   91.3962 C.3         1 DVA      -0.0104
     11 CG         48.4428   52.7552   92.4317 C.3         1 DVA      -0.0281
     12 CD         48.7684   51.3346   92.9165 C.3         1 DVA       0.0371
     13 C          45.4199   51.6233   92.7351 C.2         1 DVA       0.2039
     14 O          45.4392   51.4330   93.9414 O.2         1 DVA      -0.3944
     15 N          44.3545   52.1343   92.1355 N.am        1 DVA      -0.2664
     16 CA         43.1118   52.4963   92.7511 C.3         1 DVA       0.1201
     17 C          42.5149   53.6247   92.0609 C.2         1 DVA       0.2008
     18 O          42.5974   54.7376   92.5641 O.2         1 DVA      -0.3947
     19 N          41.8532   53.4172   90.9308 N.am        1 DVA      -0.2618
     20 CA         41.1585   54.3952   90.1376 C.3         1 DVA       0.1539
     21 C          42.1455   55.1925   89.4080 C.2         1 DVA       0.2062
     22 O          42.7060   56.0835   90.0445 O.2         1 DVA      -0.3943
     23 CB         40.0629   53.6865   89.2943 C.3         1 DVA       0.0843
     24 OG         38.9965   53.2316   90.1168 O.3         1 DVA      -0.3903
     25 N          42.3288   55.0840   88.0963 N.am        1 DVA      -0.2635
     26 CA         42.9500   56.0653   87.2419 C.3         1 DVA       0.1330
     27 C          43.5911   55.4158   86.1086 C.2         1 DVA       0.2041
     28 O          44.7248   55.7574   85.7798 O.2         1 DVA      -0.3944
     29 CB         41.8784   57.0912   86.7541 C.3         1 DVA       0.0045
     30 CG         41.2345   57.9503   87.8823 C.3         1 DVA       0.0412
     31 CD         40.0417   58.6783   87.5035 C.2         1 DVA       0.1737
     32 OE1        39.5706   58.6220   86.3727 O.2         1 DVA      -0.3973
     33 NE2        39.3685   59.3472   88.4134 N.am        1 DVA      -0.3009
     34 N          42.9023   54.5533   85.3612 N.am        1 DVA      -0.2625
     35 CA         43.2748   54.0356   84.0750 C.3         1 DVA       0.1369
     36 C          44.3330   53.0394   84.2094 C.2         1 DVA       0.2055
     37 O          44.0623   51.9436   84.6875 O.2         1 DVA      -0.3942
     38 CB         41.9901   53.4977   83.3675 C.3         1 DVA       0.0145
     39 CG         41.9124   53.6089   81.8946 C.2         1 DVA      -0.0027
     40 ND1        40.7560   53.5213   81.2290 N.2         1 DVA      -0.3252
     41 CD2        42.9234   53.8443   80.9569 C.2         1 DVA       0.0291
     42 CE1        41.0178   53.7037   79.9265 C.2         1 DVA       0.0907
     43 NE2        42.3325   53.9026   79.7530 N.pl3       1 DVA      -0.2752
     44 N          45.5938   53.3886   83.9687 N.am        1 DVA      -0.2620
     45 CA         46.7830   52.6670   84.3373 C.3         1 DVA       0.1390
     46 C          47.9807   53.3025   83.7791 C.2         1 DVA       0.2058
     47 O          47.9878   54.5011   83.5251 O.2         1 DVA      -0.3942
     48 CB         46.8357   52.5649   85.9043 C.3         1 DVA       0.0163
     49 CG         47.9187   51.6913   86.4372 C.ar        1 DVA      -0.0493
     50 CD1        47.8672   50.2916   86.2272 C.ar        1 DVA      -0.0685
     51 CD2        49.0270   52.2278   87.1322 C.ar        1 DVA      -0.0685
     52 CE1        48.9094   49.4560   86.6606 C.ar        1 DVA      -0.0398
     53 CE2        50.0681   51.3895   87.5770 C.ar        1 DVA      -0.0398
     54 CZ         50.0176   50.0036   87.3378 C.ar        1 DVA       0.0805
     55 OH         51.0227   49.1922   87.7385 O.3         1 DVA      -0.3376
     56 N          49.0569   52.5667   83.5083 N.am        1 DVA      -0.2620
     57 CA         50.3486   52.9916   83.0385 C.3         1 DVA       0.1423
     58 C          50.4846   52.7719   81.5994 C.2         1 DVA       0.2051
     59 O          50.9299   53.6493   80.8640 O.2         1 DVA      -0.3943
     60 CB         50.7047   54.4376   83.5426 C.3         1 DVA       0.0406
     61 CG         52.1571   54.6820   83.6168 C.2         1 DVA       0.0393
     62 OD1        52.8953   54.1318   84.6166 O.co2       1 DVA      -0.5688
     63 OD2        52.7474   55.5693   82.7787 O.co2       1 DVA      -0.5688
     64 N          50.1568   51.5769   81.1081 N.am        1 DVA      -0.2671
     65 CA         50.3265   51.0863   79.7725 C.3         1 DVA       0.1173
     66 C          49.9910   52.0535   78.6985 C.2         1 DVA       0.0623
     67 O          49.4056   53.2276   79.0227 O.co2       1 DVA      -0.5665
     68 OXT        49.7741   51.6073   77.4378 O.co2       1 DVA      -0.5665
     69 CB         51.7373   50.4431   79.6110 C.3         1 DVA       0.0789
     70 OG         51.7690   49.1231   80.1553 O.3         1 DVA      -0.3910
     71 H1         44.7755   47.6278   93.7938 H           1 DVA       0.2015
     72 H2         45.3848   49.0589   94.3846 H           1 DVA       0.2015
     73 H3         46.1958   47.6229   94.6693 H           1 DVA       0.2015
     74 H4         45.6977   48.7772   92.0323 H           1 DVA       0.1101
     75 H5         47.5417   46.4832   92.8457 H           1 DVA       0.0376
     76 H6         46.0255   45.0281   91.5219 H           1 DVA       0.0236
     77 H7         44.9459   46.4019   91.2130 H           1 DVA       0.0236
     78 H8         45.1599   45.7750   92.8594 H           1 DVA       0.0236
     79 H9         48.5169   47.7606   90.9285 H           1 DVA       0.0236
     80 H10        47.0085   47.5692   90.0262 H           1 DVA       0.0236
     81 H11        47.9931   46.1563   90.4357 H           1 DVA       0.0236
     82 H12        46.2685   50.7028   91.0488 H           1 DVA       0.0802
     83 H13        46.6934   53.4124   91.2915 H           1 DVA       0.0313
     84 H14        47.7911   52.3145   90.4236 H           1 DVA       0.0313
     85 H15        48.0622   53.3621   93.2558 H           1 DVA       0.0287
     86 H16        49.3156   53.2496   91.9867 H           1 DVA       0.0287
     87 H17        49.6367   50.9389   92.3754 H           1 DVA       0.0524
     88 H18        48.9888   51.3584   93.9867 H           1 DVA       0.0524
     89 H19        44.3991   52.2167   91.1676 H           1 DVA       0.1881
     90 H20        43.2322   52.7262   93.8118 H           1 DVA       0.0763
     91 H21        42.4312   51.6552   92.6742 H           1 DVA       0.0763
     92 H22        41.8410   52.5015   90.5982 H           1 DVA       0.1884
     93 H23        40.6184   55.0868   90.7864 H           1 DVA       0.0823
     94 H24        40.4806   52.8280   88.7644 H           1 DVA       0.0606
     95 H25        39.6500   54.3770   88.5593 H           1 DVA       0.0606
     96 H26        38.4827   54.0444   90.3481 H           1 DVA       0.2097
     97 H27        41.8629   54.3604   87.6428 H           1 DVA       0.1883
     98 H28        43.7051   56.6417   87.7881 H           1 DVA       0.0801
     99 H29        41.0701   56.5707   86.2209 H           1 DVA       0.0337
    100 H30        42.3593   57.7759   86.0447 H           1 DVA       0.0337
    101 H31        41.9830   58.6554   88.2556 H           1 DVA       0.0504
    102 H32        40.9458   57.2869   88.7100 H           1 DVA       0.0504
    103 H33        38.5360   59.7808   88.1845 H           1 DVA       0.1814
    104 H34        39.6768   59.3563   89.3336 H           1 DVA       0.1814
    105 H35        42.0051   54.3397   85.6670 H           1 DVA       0.1885
    106 H36        43.6282   54.8852   83.4854 H           1 DVA       0.0817
    107 H37        41.1290   54.0534   83.7518 H           1 DVA       0.0420
    108 H38        41.8391   52.4456   83.6375 H           1 DVA       0.0420
    109 H39        43.9157   53.9752   81.1330 H           1 DVA       0.0729
    110 H40        40.3221   53.6814   79.1838 H           1 DVA       0.1199
    111 H41        42.7804   54.0567   78.9090 H           1 DVA       0.2361
    112 H42        45.7183   54.2742   83.5847 H           1 DVA       0.1885
    113 H43        46.7163   51.6652   83.8996 H           1 DVA       0.0821
    114 H44        45.8988   52.1578   86.2907 H           1 DVA       0.0453
    115 H45        46.9149   53.5742   86.3187 H           1 DVA       0.0453
    116 H46        47.0712   49.8707   85.7413 H           1 DVA       0.0530
    117 H47        49.0952   53.2308   87.3045 H           1 DVA       0.0530
    118 H48        48.8610   48.4485   86.4908 H           1 DVA       0.0525
    119 H49        50.8723   51.7950   88.0680 H           1 DVA       0.0525
    120 H50        50.8501   48.9982   88.6873 H           1 DVA       0.2458
    121 H51        48.9757   51.6151   83.6854 H           1 DVA       0.1884
    122 H52        51.0613   52.3065   83.5257 H           1 DVA       0.0819
    123 H53        50.2884   54.5879   84.5460 H           1 DVA       0.0478
    124 H54        50.2519   55.1810   82.8812 H           1 DVA       0.0478
    125 H55        49.8198   50.9429   81.7564 H           1 DVA       0.1876
    126 H56        49.5883   50.2824   79.6642 H           1 DVA       0.0749
    127 H57        52.4889   51.0531   80.1187 H           1 DVA       0.0599
    128 H58        52.0216   50.3632   78.5549 H           1 DVA       0.0599
    129 H59        51.0448   48.6532   79.6776 H           1 DVA       0.2096
@<TRIPOS>BOND
     1     1     2   1
     2     2     3   1
     3     2     6   1
     4     3     4   1
     5     3     5   1
     6     6     7   2
     7     6     8  am
     8     8     9   1
     9     8    12   1
    10     9    10   1
    11     9    13   1
    12    10    11   1
    13    11    12   1
    14    13    14   2
    15    13    15  am
    16    15    16   1
    17    16    17   1
    18    17    18   2
    19    17    19  am
    20    19    20   1
    21    20    21   1
    22    20    23   1
    23    21    22   2
    24    21    25  am
    25    23    24   1
    26    25    26   1
    27    26    27   1
    28    26    29   1
    29    27    28   2
    30    27    34  am
    31    29    30   1
    32    30    31   1
    33    31    32   2
    34    31    33  am
    35    34    35   1
    36    35    36   1
    37    35    38   1
    38    36    37   2
    39    36    44  am
    40    38    39   1
    41    39    40   1
    42    39    41   2
    43    40    42   2
    44    41    43   1
    45    42    43   1
    46    44    45   1
    47    45    46   1
    48    45    48   1
    49    46    47   2
    50    46    56  am
    51    48    49   1
    52    49    50  ar
    53    49    51  ar
    54    50    52  ar
    55    51    53  ar
    56    52    54  ar
    57    53    54  ar
    58    54    55   1
    59    56    57   1
    60    57    58   1
    61    57    60   1
    62    58    59   2
    63    58    64  am
    64    60    61   1
    65    61    62  ar
    66    61    63  ar
    67    64    65   1
    68    65    66   1
    69    65    69   1
    70    66    67  ar
    71    66    68  ar
    72    69    70   1
    73     1    71   1
    74     1    72   1
    75     1    73   1
    76     2    74   1
    77     3    75   1
    78     4    76   1
    79     4    77   1
    80     4    78   1
    81     5    79   1
    82     5    80   1
    83     5    81   1
    84     9    82   1
    85    10    83   1
    86    10    84   1
    87    11    85   1
    88    11    86   1
    89    12    87   1
    90    12    88   1
    91    15    89   1
    92    16    90   1
    93    16    91   1
    94    19    92   1
    95    20    93   1
    96    23    94   1
    97    23    95   1
    98    24    96   1
    99    25    97   1
   100    26    98   1
   101    29    99   1
   102    29   100   1
   103    30   101   1
   104    30   102   1
   105    33   103   1
   106    33   104   1
   107    34   105   1
   108    35   106   1
   109    38   107   1
   110    38   108   1
   111    41   109   1
   112    42   110   1
   113    43   111   1
   114    44   112   1
   115    45   113   1
   116    48   114   1
   117    48   115   1
   118    50   116   1
   119    51   117   1
   120    52   118   1
   121    53   119   1
   122    55   120   1
   123    56   121   1
   124    57   122   1
   125    60   123   1
   126    60   124   1
   127    64   125   1
   128    65   126   1
   129    69   127   1
   130    69   128   1
   131    70   129   1
@<TRIPOS>SUBSTRUCTURE
     1  DVA      2

