@<TRIPOS>MOLECULE
1zea_ligand_011
   129   131
SMALL
GAST_HUCK
****
This file was generated by PARSER (from files_GN.cpp)

@<TRIPOS>ATOM
      1 N          53.5966   49.0820   75.8309 N.4         1 DVA       0.2381
      2 CA         54.4060   49.6819   76.9078 C.3         1 DVA       0.0675
      3 CB         54.7648   48.6089   77.9942 C.3         1 DVA       0.0139
      4 CG1        56.0574   48.9659   78.7785 C.3         1 DVA      -0.0553
      5 CG2        53.6164   48.2780   78.9996 C.3         1 DVA      -0.0553
      6 C          53.7492   50.8839   77.4504 C.2         1 DVA       0.2295
      7 O          52.5317   50.7974   77.5823 O.2         1 DVA      -0.3905
      8 N          54.3588   52.0138   77.8569 N.am        1 DVA      -0.2471
      9 CA         53.6895   53.0827   78.5715 C.3         1 DVA       0.1339
     10 CB         54.7990   54.1102   78.9175 C.3         1 DVA      -0.0104
     11 CG         55.8927   53.8305   77.8793 C.3         1 DVA      -0.0281
     12 CD         55.7361   52.3305   77.5848 C.3         1 DVA       0.0371
     13 C          52.9477   52.6334   79.7507 C.2         1 DVA       0.2039
     14 O          53.5420   52.4865   80.8199 O.2         1 DVA      -0.3944
     15 N          51.6765   52.2701   79.6204 N.am        1 DVA      -0.2664
     16 CA         50.8720   51.6142   80.6033 C.3         1 DVA       0.1201
     17 C          49.4382   51.8035   80.4040 C.2         1 DVA       0.2008
     18 O          49.0349   52.3641   79.3893 O.2         1 DVA      -0.3947
     19 N          48.6094   51.3243   81.3169 N.am        1 DVA      -0.2618
     20 CA         47.1633   51.3480   81.4007 C.3         1 DVA       0.1539
     21 C          46.7374   51.6070   82.7678 C.2         1 DVA       0.2062
     22 O          47.3459   52.4381   83.4385 O.2         1 DVA      -0.3943
     23 CB         46.3718   52.2844   80.4357 C.3         1 DVA       0.0843
     24 OG         46.9192   53.6021   80.3882 O.3         1 DVA      -0.3903
     25 N          45.6128   51.0506   83.2080 N.am        1 DVA      -0.2635
     26 CA         44.9124   51.3175   84.4342 C.3         1 DVA       0.1330
     27 C          43.4803   51.4939   84.1704 C.2         1 DVA       0.2041
     28 O          42.8821   50.7032   83.4509 O.2         1 DVA      -0.3944
     29 CB         45.1957   50.2231   85.5121 C.3         1 DVA       0.0045
     30 CG         45.2643   48.7384   85.0669 C.3         1 DVA       0.0412
     31 CD         44.0797   48.2153   84.4218 C.2         1 DVA       0.1737
     32 OE1        44.1709   47.5412   83.4071 O.2         1 DVA      -0.3973
     33 NE2        42.8778   48.4271   84.9080 N.am        1 DVA      -0.3009
     34 N          42.8377   52.4932   84.7577 N.am        1 DVA      -0.2625
     35 CA         41.4217   52.7710   84.7388 C.3         1 DVA       0.1369
     36 C          41.1486   53.6343   85.8891 C.2         1 DVA       0.2055
     37 O          40.8896   54.8256   85.7417 O.2         1 DVA      -0.3942
     38 CB         40.8741   53.2826   83.3485 C.3         1 DVA       0.0145
     39 CG         41.8634   53.6655   82.3217 C.2         1 DVA      -0.0027
     40 ND1        41.7505   53.3817   81.0090 N.2         1 DVA      -0.3252
     41 CD2        43.0552   54.3606   82.4981 C.2         1 DVA       0.0291
     42 CE1        42.8372   53.8757   80.3941 C.2         1 DVA       0.0907
     43 NE2        43.6408   54.4528   81.3001 N.pl3       1 DVA      -0.2752
     44 N          41.1565   53.0990   87.1135 N.am        1 DVA      -0.2620
     45 CA         40.8064   53.7478   88.3547 C.3         1 DVA       0.1390
     46 C          40.7520   52.7857   89.4640 C.2         1 DVA       0.2058
     47 O          41.4537   51.7828   89.4272 O.2         1 DVA      -0.3942
     48 CB         41.7620   54.9366   88.7017 C.3         1 DVA       0.0163
     49 CG         41.1673   55.9125   89.6599 C.ar        1 DVA      -0.0493
     50 CD1        40.1711   56.8284   89.2312 C.ar        1 DVA      -0.0685
     51 CD2        41.5762   55.9608   91.0150 C.ar        1 DVA      -0.0685
     52 CE1        39.5989   57.7485   90.1304 C.ar        1 DVA      -0.0398
     53 CE2        40.9927   56.8644   91.9183 C.ar        1 DVA      -0.0398
     54 CZ         40.0103   57.7764   91.4762 C.ar        1 DVA       0.0805
     55 OH         39.4709   58.6472   92.3647 O.3         1 DVA      -0.3376
     56 N          39.9924   53.0381   90.5262 N.am        1 DVA      -0.2620
     57 CA         39.7792   52.1862   91.6691 C.3         1 DVA       0.1423
     58 C          40.4383   52.7834   92.8243 C.2         1 DVA       0.2051
     59 O          39.8266   53.5124   93.5973 O.2         1 DVA      -0.3943
     60 CB         38.2458   51.9403   91.7941 C.3         1 DVA       0.0406
     61 CG         37.9102   50.6940   92.5001 C.2         1 DVA       0.0393
     62 OD1        37.3350   50.7212   93.7262 O.co2       1 DVA      -0.5688
     63 OD2        38.1532   49.4932   91.9256 O.co2       1 DVA      -0.5688
     64 N          41.7122   52.4805   93.0426 N.am        1 DVA      -0.2671
     65 CA         42.5227   52.8800   94.1570 C.3         1 DVA       0.1173
     66 C          42.4491   51.8909   95.2694 C.2         1 DVA       0.0623
     67 O          42.5974   50.5613   95.0170 O.co2       1 DVA      -0.5665
     68 OXT        42.0755   52.2718   96.5186 O.co2       1 DVA      -0.5665
     69 CB         43.9973   53.0717   93.7063 C.3         1 DVA       0.0789
     70 OG         44.6904   51.8362   93.5302 O.3         1 DVA      -0.3910
     71 H1         54.1338   48.3328   75.3837 H           1 DVA       0.2015
     72 H2         53.3700   49.7933   75.1315 H           1 DVA       0.2015
     73 H3         52.7319   48.6905   76.2155 H           1 DVA       0.2015
     74 H4         55.3364   49.9540   76.4069 H           1 DVA       0.1101
     75 H5         54.9838   47.6772   77.4608 H           1 DVA       0.0376
     76 H6         56.3315   48.1515   79.4558 H           1 DVA       0.0236
     77 H7         55.9165   49.8762   79.3682 H           1 DVA       0.0236
     78 H8         56.8907   49.1205   78.0844 H           1 DVA       0.0236
     79 H9         52.6871   48.0851   78.4690 H           1 DVA       0.0236
     80 H10        53.4559   49.1041   79.6941 H           1 DVA       0.0236
     81 H11        53.8691   47.3876   79.5778 H           1 DVA       0.0236
     82 H12        53.0085   53.5617   77.8546 H           1 DVA       0.0802
     83 H13        55.2152   53.9451   79.9197 H           1 DVA       0.0313
     84 H14        54.4353   55.1401   78.8493 H           1 DVA       0.0313
     85 H15        56.8892   54.0670   78.2587 H           1 DVA       0.0287
     86 H16        55.7019   54.4155   76.9741 H           1 DVA       0.0287
     87 H17        56.0012   52.1556   76.5387 H           1 DVA       0.0524
     88 H18        56.3924   51.7425   78.2316 H           1 DVA       0.0524
     89 H19        51.2913   52.3865   78.7354 H           1 DVA       0.1881
     90 H20        51.1451   51.9874   81.5964 H           1 DVA       0.0763
     91 H21        51.0803   50.5372   80.5700 H           1 DVA       0.0763
     92 H22        49.0388   50.8367   82.0422 H           1 DVA       0.1884
     93 H23        46.8711   50.3224   81.1448 H           1 DVA       0.0823
     94 H24        45.3312   52.3570   80.7577 H           1 DVA       0.0606
     95 H25        46.3700   51.8705   79.4262 H           1 DVA       0.0606
     96 H26        46.8218   53.9573   81.3008 H           1 DVA       0.2097
     97 H27        45.1983   50.4047   82.6154 H           1 DVA       0.1883
     98 H28        45.2798   52.2580   84.8621 H           1 DVA       0.0801
     99 H29        44.4648   50.3211   86.3232 H           1 DVA       0.0337
    100 H30        46.1673   50.4586   85.9583 H           1 DVA       0.0337
    101 H31        45.4465   48.1305   85.9531 H           1 DVA       0.0504
    102 H32        46.1333   48.6169   84.4152 H           1 DVA       0.0504
    103 H33        42.1021   48.0709   84.4456 H           1 DVA       0.1814
    104 H34        42.7549   48.9907   85.6889 H           1 DVA       0.1814
    105 H35        43.3738   53.0744   85.3244 H           1 DVA       0.1885
    106 H36        40.8989   51.8292   84.9453 H           1 DVA       0.0817
    107 H37        40.1990   54.1344   83.4804 H           1 DVA       0.0420
    108 H38        40.2546   52.4913   82.9164 H           1 DVA       0.0420
    109 H39        43.4306   54.7102   83.3782 H           1 DVA       0.0729
    110 H40        43.0291   53.8040   79.3942 H           1 DVA       0.1199
    111 H41        44.4974   54.8654   81.1103 H           1 DVA       0.2361
    112 H42        41.3404   52.1421   87.1520 H           1 DVA       0.1885
    113 H43        39.7896   54.1247   88.2148 H           1 DVA       0.0821
    114 H44        42.0256   55.4892   87.7977 H           1 DVA       0.0453
    115 H45        42.6994   54.5349   89.0994 H           1 DVA       0.0453
    116 H46        39.8494   56.8189   88.2582 H           1 DVA       0.0530
    117 H47        42.2886   55.3103   91.3605 H           1 DVA       0.0530
    118 H48        38.8831   58.4019   89.7967 H           1 DVA       0.0525
    119 H49        41.2888   56.8710   92.8982 H           1 DVA       0.0525
    120 H50        38.9678   59.3036   91.8375 H           1 DVA       0.2458
    121 H51        39.5108   53.8877   90.5293 H           1 DVA       0.1884
    122 H52        40.2352   51.2041   91.5024 H           1 DVA       0.0819
    123 H53        37.8153   51.8863   90.7894 H           1 DVA       0.0478
    124 H54        37.7777   52.7900   92.3039 H           1 DVA       0.0478
    125 H55        42.1455   51.9297   92.3777 H           1 DVA       0.1876
    126 H56        42.1669   53.8509   94.5283 H           1 DVA       0.0749
    127 H57        44.5362   53.6642   94.4511 H           1 DVA       0.0599
    128 H58        44.0135   53.6179   92.7631 H           1 DVA       0.0599
    129 H59        44.4420   51.5250   92.6354 H           1 DVA       0.2096
@<TRIPOS>BOND
     1     1     2   1
     2     2     3   1
     3     2     6   1
     4     3     4   1
     5     3     5   1
     6     6     7   2
     7     6     8  am
     8     8     9   1
     9     8    12   1
    10     9    10   1
    11     9    13   1
    12    10    11   1
    13    11    12   1
    14    13    14   2
    15    13    15  am
    16    15    16   1
    17    16    17   1
    18    17    18   2
    19    17    19  am
    20    19    20   1
    21    20    21   1
    22    20    23   1
    23    21    22   2
    24    21    25  am
    25    23    24   1
    26    25    26   1
    27    26    27   1
    28    26    29   1
    29    27    28   2
    30    27    34  am
    31    29    30   1
    32    30    31   1
    33    31    32   2
    34    31    33  am
    35    34    35   1
    36    35    36   1
    37    35    38   1
    38    36    37   2
    39    36    44  am
    40    38    39   1
    41    39    40   1
    42    39    41   2
    43    40    42   2
    44    41    43   1
    45    42    43   1
    46    44    45   1
    47    45    46   1
    48    45    48   1
    49    46    47   2
    50    46    56  am
    51    48    49   1
    52    49    50  ar
    53    49    51  ar
    54    50    52  ar
    55    51    53  ar
    56    52    54  ar
    57    53    54  ar
    58    54    55   1
    59    56    57   1
    60    57    58   1
    61    57    60   1
    62    58    59   2
    63    58    64  am
    64    60    61   1
    65    61    62  ar
    66    61    63  ar
    67    64    65   1
    68    65    66   1
    69    65    69   1
    70    66    67  ar
    71    66    68  ar
    72    69    70   1
    73     1    71   1
    74     1    72   1
    75     1    73   1
    76     2    74   1
    77     3    75   1
    78     4    76   1
    79     4    77   1
    80     4    78   1
    81     5    79   1
    82     5    80   1
    83     5    81   1
    84     9    82   1
    85    10    83   1
    86    10    84   1
    87    11    85   1
    88    11    86   1
    89    12    87   1
    90    12    88   1
    91    15    89   1
    92    16    90   1
    93    16    91   1
    94    19    92   1
    95    20    93   1
    96    23    94   1
    97    23    95   1
    98    24    96   1
    99    25    97   1
   100    26    98   1
   101    29    99   1
   102    29   100   1
   103    30   101   1
   104    30   102   1
   105    33   103   1
   106    33   104   1
   107    34   105   1
   108    35   106   1
   109    38   107   1
   110    38   108   1
   111    41   109   1
   112    42   110   1
   113    43   111   1
   114    44   112   1
   115    45   113   1
   116    48   114   1
   117    48   115   1
   118    50   116   1
   119    51   117   1
   120    52   118   1
   121    53   119   1
   122    55   120   1
   123    56   121   1
   124    57   122   1
   125    60   123   1
   126    60   124   1
   127    64   125   1
   128    65   126   1
   129    69   127   1
   130    69   128   1
   131    70   129   1
@<TRIPOS>SUBSTRUCTURE
     1  DVA      2

