@<TRIPOS>MOLECULE
1zea_ligand_068
   129   131
SMALL
GAST_HUCK
****
This file was generated by PARSER (from files_GN.cpp)

@<TRIPOS>ATOM
      1 N          51.9425   49.1150   78.4858 N.4         1 DVA       0.2381
      2 CA         52.3107   50.5412   78.5594 C.3         1 DVA       0.0675
      3 CB         53.5569   50.8679   77.6597 C.3         1 DVA       0.0139
      4 CG1        53.2825   50.6177   76.1470 C.3         1 DVA      -0.0553
      5 CG2        54.0661   52.3295   77.8557 C.3         1 DVA      -0.0553
      6 C          52.5256   50.8485   79.9777 C.2         1 DVA       0.2295
      7 O          53.3942   50.1794   80.5286 O.2         1 DVA      -0.3905
      8 N          51.8768   51.7747   80.7051 N.am        1 DVA      -0.2471
      9 CA         50.8772   52.6948   80.2128 C.3         1 DVA       0.1339
     10 CB         50.7665   53.7822   81.3138 C.3         1 DVA      -0.0104
     11 CG         51.1819   53.0597   82.6000 C.3         1 DVA      -0.0281
     12 CD         52.1795   52.0000   82.0947 C.3         1 DVA       0.0371
     13 C          49.5801   52.0723   79.9303 C.2         1 DVA       0.2039
     14 O          48.9702   52.4285   78.9285 O.2         1 DVA      -0.3944
     15 N          49.0575   51.1988   80.7777 N.am        1 DVA      -0.2664
     16 CA         47.7449   50.6146   80.7346 C.3         1 DVA       0.1201
     17 C          47.0409   50.7818   81.9979 C.2         1 DVA       0.2008
     18 O          47.4718   51.5574   82.8469 O.2         1 DVA      -0.3947
     19 N          45.9302   50.0830   82.2266 N.am        1 DVA      -0.2618
     20 CA         45.3024   49.9085   83.5155 C.3         1 DVA       0.1539
     21 C          44.1260   50.7712   83.6092 C.2         1 DVA       0.2062
     22 O          43.0852   50.4747   83.0406 O.2         1 DVA      -0.3943
     23 CB         45.0808   48.3902   83.8005 C.3         1 DVA       0.0843
     24 OG         43.7096   47.9676   83.8043 O.3         1 DVA      -0.3903
     25 N          44.2481   51.9396   84.2282 N.am        1 DVA      -0.2635
     26 CA         43.2178   52.8387   84.6881 C.3         1 DVA       0.1330
     27 C          43.8839   54.0323   85.2054 C.2         1 DVA       0.2041
     28 O          44.3885   54.8358   84.4241 O.2         1 DVA      -0.3944
     29 CB         42.0318   53.2168   83.7386 C.3         1 DVA       0.0045
     30 CG         42.2562   54.2383   82.5893 C.3         1 DVA       0.0412
     31 CD         43.1014   53.7754   81.4972 C.2         1 DVA       0.1737
     32 OE1        44.2414   53.3855   81.7104 O.2         1 DVA      -0.3973
     33 NE2        42.6945   53.8608   80.2481 N.am        1 DVA      -0.3009
     34 N          43.9591   54.2315   86.5168 N.am        1 DVA      -0.2625
     35 CA         44.7275   55.2531   87.1972 C.3         1 DVA       0.1369
     36 C          43.9480   55.9521   88.2203 C.2         1 DVA       0.2055
     37 O          42.7854   55.6224   88.4518 O.2         1 DVA      -0.3942
     38 CB         46.0520   54.6303   87.7531 C.3         1 DVA       0.0145
     39 CG         45.9501   53.4078   88.5896 C.2         1 DVA      -0.0027
     40 ND1        46.9724   52.5357   88.7235 N.2         1 DVA      -0.3252
     41 CD2        44.8773   52.8926   89.3140 C.2         1 DVA       0.0291
     42 CE1        46.5501   51.5298   89.4968 C.2         1 DVA       0.0907
     43 NE2        45.2691   51.7412   89.8600 N.pl3       1 DVA      -0.2752
     44 N          44.4939   56.9719   88.8842 N.am        1 DVA      -0.2620
     45 CA         43.8730   57.7668   89.9194 C.3         1 DVA       0.1390
     46 C          43.4815   56.9270   91.0445 C.2         1 DVA       0.2058
     47 O          44.3497   56.3293   91.6676 O.2         1 DVA      -0.3942
     48 CB         44.8187   58.9118   90.3869 C.3         1 DVA       0.0163
     49 CG         44.9379   60.0252   89.4020 C.ar        1 DVA      -0.0493
     50 CD1        44.1307   61.1816   89.5229 C.ar        1 DVA      -0.0685
     51 CD2        45.8626   59.9541   88.3328 C.ar        1 DVA      -0.0685
     52 CE1        44.2649   62.2486   88.6152 C.ar        1 DVA      -0.0398
     53 CE2        45.9920   61.0188   87.4217 C.ar        1 DVA      -0.0398
     54 CZ         45.1970   62.1688   87.5628 C.ar        1 DVA       0.0805
     55 OH         45.3486   63.1931   86.6865 O.3         1 DVA      -0.3376
     56 N          42.1916   56.7603   91.3209 N.am        1 DVA      -0.2620
     57 CA         41.5713   55.7945   92.1809 C.3         1 DVA       0.1423
     58 C          41.3919   54.5344   91.4647 C.2         1 DVA       0.2051
     59 O          42.3701   53.8219   91.2723 O.2         1 DVA      -0.3943
     60 CB         42.2635   55.6353   93.5717 C.3         1 DVA       0.0406
     61 CG         41.4023   54.9720   94.5777 C.2         1 DVA       0.0393
     62 OD1        41.0654   55.6050   95.7290 O.co2       1 DVA      -0.5688
     63 OD2        41.0221   53.6780   94.4310 O.co2       1 DVA      -0.5688
     64 N          40.1845   54.1566   91.0476 N.am        1 DVA      -0.2671
     65 CA         39.8470   52.9677   90.3261 C.3         1 DVA       0.1173
     66 C          39.3376   51.9703   91.2938 C.2         1 DVA       0.0623
     67 O          38.0110   51.8407   91.5377 O.co2       1 DVA      -0.5665
     68 OXT        40.1992   51.2670   92.0661 O.co2       1 DVA      -0.5665
     69 CB         38.8047   53.2829   89.2225 C.3         1 DVA       0.0789
     70 OG         39.3809   54.0233   88.1499 O.3         1 DVA      -0.3910
     71 H1         51.7671   48.8194   77.5255 H           1 DVA       0.2015
     72 H2         51.0952   48.9409   79.0279 H           1 DVA       0.2015
     73 H3         52.7083   48.5465   78.8581 H           1 DVA       0.2015
     74 H4         51.4593   51.0897   78.1551 H           1 DVA       0.1101
     75 H5         54.3765   50.1965   77.9505 H           1 DVA       0.0376
     76 H6         54.1658   50.8587   75.5542 H           1 DVA       0.0236
     77 H7         52.4511   51.2371   75.8056 H           1 DVA       0.0236
     78 H8         53.0398   49.5706   75.9680 H           1 DVA       0.0236
     79 H9         54.3807   52.4929   78.8903 H           1 DVA       0.0236
     80 H10        53.2736   53.0444   77.6139 H           1 DVA       0.0236
     81 H11        54.9276   52.5249   77.2118 H           1 DVA       0.0236
     82 H12        51.2578   53.1949   79.3114 H           1 DVA       0.0802
     83 H13        49.7668   54.2249   81.3994 H           1 DVA       0.0313
     84 H14        51.4842   54.5862   81.1135 H           1 DVA       0.0313
     85 H15        50.3099   52.5796   83.0611 H           1 DVA       0.0287
     86 H16        51.6405   53.7448   83.3213 H           1 DVA       0.0287
     87 H17        53.2053   52.3740   82.1967 H           1 DVA       0.0524
     88 H18        52.0720   51.0840   82.6869 H           1 DVA       0.0524
     89 H19        49.6039   50.9427   81.5392 H           1 DVA       0.1881
     90 H20        47.8873   49.5466   80.5515 H           1 DVA       0.0763
     91 H21        47.1258   51.0175   79.9266 H           1 DVA       0.0763
     92 H22        45.6048   49.5247   81.4906 H           1 DVA       0.1884
     93 H23        46.0154   50.2145   84.2891 H           1 DVA       0.0823
     94 H24        45.5245   48.1114   84.7695 H           1 DVA       0.0606
     95 H25        45.5956   47.7964   83.0341 H           1 DVA       0.0606
     96 H26        43.4371   48.0761   84.7461 H           1 DVA       0.2097
     97 H27        45.1438   52.1524   84.5499 H           1 DVA       0.1883
     98 H28        42.7592   52.3061   85.5235 H           1 DVA       0.0801
     99 H29        41.2396   53.6522   84.3671 H           1 DVA       0.0337
    100 H30        41.6038   52.3048   83.3099 H           1 DVA       0.0337
    101 H31        42.6872   55.1579   82.9941 H           1 DVA       0.0504
    102 H32        41.2656   54.5091   82.1880 H           1 DVA       0.0504
    103 H33        43.2940   53.6180   79.5251 H           1 DVA       0.1814
    104 H34        41.8021   54.1925   80.0452 H           1 DVA       0.1814
    105 H35        43.5104   53.5838   87.0880 H           1 DVA       0.1885
    106 H36        44.9990   56.0171   86.4634 H           1 DVA       0.0817
    107 H37        46.6014   55.3849   88.3241 H           1 DVA       0.0420
    108 H38        46.6839   54.3702   86.9012 H           1 DVA       0.0420
    109 H39        43.9396   53.2922   89.4006 H           1 DVA       0.0729
    110 H40        47.1029   50.7139   89.7523 H           1 DVA       0.1199
    111 H41        44.7334   51.1510   90.4026 H           1 DVA       0.2361
    112 H42        45.4140   57.1897   88.6524 H           1 DVA       0.1885
    113 H43        42.9894   58.2352   89.4712 H           1 DVA       0.0821
    114 H44        45.8112   58.5061   90.6054 H           1 DVA       0.0453
    115 H45        44.4428   59.3220   91.3297 H           1 DVA       0.0453
    116 H46        43.4435   61.2534   90.2716 H           1 DVA       0.0530
    117 H47        46.4603   59.1286   88.2170 H           1 DVA       0.0530
    118 H48        43.6803   63.0812   88.7245 H           1 DVA       0.0525
    119 H49        46.6735   60.9558   86.6642 H           1 DVA       0.0525
    120 H50        45.7466   63.9283   87.1961 H           1 DVA       0.2458
    121 H51        41.5792   57.3136   90.8064 H           1 DVA       0.1884
    122 H52        40.5816   56.2205   92.3902 H           1 DVA       0.0819
    123 H53        42.5287   56.6262   93.9423 H           1 DVA       0.0478
    124 H54        43.1821   55.0595   93.4906 H           1 DVA       0.0478
    125 H55        39.4445   54.7475   91.2625 H           1 DVA       0.1876
    126 H56        40.7223   52.5349   89.8312 H           1 DVA       0.0749
    127 H57        37.9810   53.8674   89.6342 H           1 DVA       0.0599
    128 H58        38.3931   52.3604   88.8119 H           1 DVA       0.0599
    129 H59        40.1123   53.4592   87.8074 H           1 DVA       0.2096
@<TRIPOS>BOND
     1     1     2   1
     2     2     3   1
     3     2     6   1
     4     3     4   1
     5     3     5   1
     6     6     7   2
     7     6     8  am
     8     8     9   1
     9     8    12   1
    10     9    10   1
    11     9    13   1
    12    10    11   1
    13    11    12   1
    14    13    14   2
    15    13    15  am
    16    15    16   1
    17    16    17   1
    18    17    18   2
    19    17    19  am
    20    19    20   1
    21    20    21   1
    22    20    23   1
    23    21    22   2
    24    21    25  am
    25    23    24   1
    26    25    26   1
    27    26    27   1
    28    26    29   1
    29    27    28   2
    30    27    34  am
    31    29    30   1
    32    30    31   1
    33    31    32   2
    34    31    33  am
    35    34    35   1
    36    35    36   1
    37    35    38   1
    38    36    37   2
    39    36    44  am
    40    38    39   1
    41    39    40   1
    42    39    41   2
    43    40    42   2
    44    41    43   1
    45    42    43   1
    46    44    45   1
    47    45    46   1
    48    45    48   1
    49    46    47   2
    50    46    56  am
    51    48    49   1
    52    49    50  ar
    53    49    51  ar
    54    50    52  ar
    55    51    53  ar
    56    52    54  ar
    57    53    54  ar
    58    54    55   1
    59    56    57   1
    60    57    58   1
    61    57    60   1
    62    58    59   2
    63    58    64  am
    64    60    61   1
    65    61    62  ar
    66    61    63  ar
    67    64    65   1
    68    65    66   1
    69    65    69   1
    70    66    67  ar
    71    66    68  ar
    72    69    70   1
    73     1    71   1
    74     1    72   1
    75     1    73   1
    76     2    74   1
    77     3    75   1
    78     4    76   1
    79     4    77   1
    80     4    78   1
    81     5    79   1
    82     5    80   1
    83     5    81   1
    84     9    82   1
    85    10    83   1
    86    10    84   1
    87    11    85   1
    88    11    86   1
    89    12    87   1
    90    12    88   1
    91    15    89   1
    92    16    90   1
    93    16    91   1
    94    19    92   1
    95    20    93   1
    96    23    94   1
    97    23    95   1
    98    24    96   1
    99    25    97   1
   100    26    98   1
   101    29    99   1
   102    29   100   1
   103    30   101   1
   104    30   102   1
   105    33   103   1
   106    33   104   1
   107    34   105   1
   108    35   106   1
   109    38   107   1
   110    38   108   1
   111    41   109   1
   112    42   110   1
   113    43   111   1
   114    44   112   1
   115    45   113   1
   116    48   114   1
   117    48   115   1
   118    50   116   1
   119    51   117   1
   120    52   118   1
   121    53   119   1
   122    55   120   1
   123    56   121   1
   124    57   122   1
   125    60   123   1
   126    60   124   1
   127    64   125   1
   128    65   126   1
   129    69   127   1
   130    69   128   1
   131    70   129   1
@<TRIPOS>SUBSTRUCTURE
     1  DVA      2

