@<TRIPOS>MOLECULE
1zea_ligand_037
   129   131
SMALL
GAST_HUCK
****
This file was generated by PARSER (from files_GN.cpp)

@<TRIPOS>ATOM
      1 N          47.2484   48.0734   91.8027 N.4         1 DVA       0.2381
      2 CA         48.6543   47.6234   91.7051 C.3         1 DVA       0.0675
      3 CB         48.8005   46.0920   92.0407 C.3         1 DVA       0.0139
      4 CG1        48.6359   45.7432   93.5512 C.3         1 DVA      -0.0553
      5 CG2        47.8402   45.2095   91.1872 C.3         1 DVA      -0.0553
      6 C          49.5429   48.4876   92.4989 C.2         1 DVA       0.2295
      7 O          49.0410   49.0137   93.4894 O.2         1 DVA      -0.3905
      8 N          50.8601   48.6951   92.2769 N.am        1 DVA      -0.2471
      9 CA         51.6396   48.1696   91.1770 C.3         1 DVA       0.1339
     10 CB         53.1143   48.2865   91.6468 C.3         1 DVA      -0.0104
     11 CG         53.1039   49.4756   92.6183 C.3         1 DVA      -0.0281
     12 CD         51.6807   49.4450   93.2014 C.3         1 DVA       0.0371
     13 C          51.4007   48.8981   89.9303 C.2         1 DVA       0.2039
     14 O          51.8070   50.0483   89.8150 O.2         1 DVA      -0.3944
     15 N          50.7383   48.3067   88.9432 N.am        1 DVA      -0.2664
     16 CA         50.4577   48.8668   87.6563 C.3         1 DVA       0.1201
     17 C          49.4783   49.9368   87.6025 C.2         1 DVA       0.2008
     18 O          49.0505   50.2480   86.4957 O.2         1 DVA      -0.3947
     19 N          49.0598   50.5709   88.6956 N.am        1 DVA      -0.2618
     20 CA         48.1273   51.6611   88.7278 C.3         1 DVA       0.1539
     21 C          46.8146   51.1844   88.3140 C.2         1 DVA       0.2062
     22 O          46.1681   50.4792   89.0788 O.2         1 DVA      -0.3943
     23 CB         48.1330   52.3262   90.1266 C.3         1 DVA       0.0843
     24 OG         49.4301   52.8558   90.3995 O.3         1 DVA      -0.3903
     25 N          46.3972   51.4516   87.0863 N.am        1 DVA      -0.2635
     26 CA         45.1993   51.0337   86.4136 C.3         1 DVA       0.1330
     27 C          44.3748   52.2101   86.1678 C.2         1 DVA       0.2041
     28 O          44.9257   53.2844   85.9361 O.2         1 DVA      -0.3944
     29 CB         45.6209   50.3266   85.0875 C.3         1 DVA       0.0045
     30 CG         44.5065   50.1059   84.0164 C.3         1 DVA       0.0412
     31 CD         43.9168   48.7734   84.0261 C.2         1 DVA       0.1737
     32 OE1        44.3800   47.8941   83.3107 O.2         1 DVA      -0.3973
     33 NE2        42.8404   48.4695   84.7223 N.am        1 DVA      -0.3009
     34 N          43.0566   52.0868   86.0741 N.am        1 DVA      -0.2625
     35 CA         42.0780   53.1185   85.8544 C.3         1 DVA       0.1369
     36 C          41.9218   53.8987   87.0822 C.2         1 DVA       0.2055
     37 O          42.8340   54.6392   87.4315 O.2         1 DVA      -0.3942
     38 CB         42.3612   53.9946   84.5781 C.3         1 DVA       0.0145
     39 CG         41.2464   54.1026   83.6077 C.2         1 DVA      -0.0027
     40 ND1        41.3707   54.0077   82.2688 N.2         1 DVA      -0.3252
     41 CD2        39.9105   54.3610   83.8820 C.2         1 DVA       0.0291
     42 CE1        40.1550   54.1967   81.7379 C.2         1 DVA       0.0907
     43 NE2        39.2615   54.4115   82.7140 N.pl3       1 DVA      -0.2752
     44 N          40.8735   53.7100   87.8807 N.am        1 DVA      -0.2620
     45 CA         40.7706   54.1397   89.2552 C.3         1 DVA       0.1390
     46 C          40.9060   55.5927   89.3993 C.2         1 DVA       0.2058
     47 O          42.0131   56.0366   89.6919 O.2         1 DVA      -0.3942
     48 CB         39.4551   53.5430   89.8648 C.3         1 DVA       0.0163
     49 CG         39.2727   53.4689   91.3488 C.ar        1 DVA      -0.0493
     50 CD1        38.1846   52.7038   91.8410 C.ar        1 DVA      -0.0685
     51 CD2        40.1204   54.1019   92.2910 C.ar        1 DVA      -0.0685
     52 CE1        37.9327   52.5962   93.2166 C.ar        1 DVA      -0.0398
     53 CE2        39.8685   54.0035   93.6687 C.ar        1 DVA      -0.0398
     54 CZ         38.7799   53.2352   94.1410 C.ar        1 DVA       0.0805
     55 OH         38.5292   53.1278   95.4688 O.3         1 DVA      -0.3376
     56 N          39.8816   56.4169   89.1842 N.am        1 DVA      -0.2620
     57 CA         39.8685   57.8644   89.1985 C.3         1 DVA       0.1423
     58 C          40.1017   58.5152   90.4954 C.2         1 DVA       0.2051
     59 O          40.1359   59.7417   90.5131 O.2         1 DVA      -0.3943
     60 CB         40.8035   58.4554   88.0866 C.3         1 DVA       0.0406
     61 CG         40.5291   57.9171   86.7315 C.2         1 DVA       0.0393
     62 OD1        41.0070   56.6996   86.3899 O.co2       1 DVA      -0.5688
     63 OD2        39.5605   58.4755   85.9695 O.co2       1 DVA      -0.5688
     64 N          40.3081   57.8259   91.6140 N.am        1 DVA      -0.2671
     65 CA         40.6247   58.3233   92.9230 C.3         1 DVA       0.1173
     66 C          41.5358   59.4989   92.8612 C.2         1 DVA       0.0623
     67 O          42.8576   59.3025   92.6212 O.co2       1 DVA      -0.5665
     68 OXT        41.0640   60.7717   92.8107 O.co2       1 DVA      -0.5665
     69 CB         39.3670   58.4973   93.8247 C.3         1 DVA       0.0789
     70 OG         38.6093   59.6819   93.5770 O.3         1 DVA      -0.3910
     71 H1         46.6703   47.5430   91.1449 H           1 DVA       0.2015
     72 H2         47.1887   49.0693   91.5673 H           1 DVA       0.2015
     73 H3         46.9012   47.9291   92.7573 H           1 DVA       0.2015
     74 H4         48.9094   47.7644   90.6574 H           1 DVA       0.1101
     75 H5         49.8164   45.7934   91.7593 H           1 DVA       0.0376
     76 H6         48.7373   44.6602   93.6976 H           1 DVA       0.0236
     77 H7         47.6536   46.0619   93.9226 H           1 DVA       0.0236
     78 H8         49.4171   46.2358   94.1371 H           1 DVA       0.0236
     79 H9         47.8883   45.4946   90.1318 H           1 DVA       0.0236
     80 H10        46.8050   45.3148   91.5293 H           1 DVA       0.0236
     81 H11        48.1290   44.1555   91.2706 H           1 DVA       0.0236
     82 H12        51.4345   47.1036   91.0415 H           1 DVA       0.0802
     83 H13        53.8265   48.4410   90.8232 H           1 DVA       0.0313
     84 H14        53.4046   47.3774   92.1899 H           1 DVA       0.0313
     85 H15        53.2723   50.4067   92.0698 H           1 DVA       0.0287
     86 H16        53.8668   49.3698   93.3929 H           1 DVA       0.0287
     87 H17        51.6903   48.9480   94.1774 H           1 DVA       0.0524
     88 H18        51.3033   50.4641   93.3199 H           1 DVA       0.0524
     89 H19        50.4441   47.3981   89.0925 H           1 DVA       0.1881
     90 H20        50.0862   48.0567   87.0257 H           1 DVA       0.0763
     91 H21        51.3953   49.2257   87.2164 H           1 DVA       0.0763
     92 H22        49.4398   50.2937   89.5469 H           1 DVA       0.1884
     93 H23        48.4841   52.4349   88.0392 H           1 DVA       0.0823
     94 H24        47.8767   51.6066   90.9056 H           1 DVA       0.0606
     95 H25        47.4113   53.1455   90.1527 H           1 DVA       0.0606
     96 H26        49.3618   53.2683   91.2861 H           1 DVA       0.2097
     97 H27        46.9972   51.9967   86.5535 H           1 DVA       0.1883
     98 H28        44.6450   50.3150   87.0232 H           1 DVA       0.0801
     99 H29        46.0736   49.3550   85.3316 H           1 DVA       0.0337
    100 H30        46.4095   50.9280   84.6183 H           1 DVA       0.0337
    101 H31        44.9596   50.2696   83.0283 H           1 DVA       0.0504
    102 H32        43.7150   50.8622   84.1274 H           1 DVA       0.0504
    103 H33        42.4809   47.5664   84.6741 H           1 DVA       0.1814
    104 H34        42.4042   49.1194   85.2978 H           1 DVA       0.1814
    105 H35        42.7025   51.1981   86.1924 H           1 DVA       0.1885
    106 H36        41.1477   52.5661   85.6794 H           1 DVA       0.0817
    107 H37        43.2103   53.5814   84.0235 H           1 DVA       0.0420
    108 H38        42.6469   55.0155   84.8526 H           1 DVA       0.0420
    109 H39        39.4950   54.4749   84.8079 H           1 DVA       0.0729
    110 H40        39.9460   54.1850   80.7388 H           1 DVA       0.1199
    111 H41        38.3172   54.5758   82.5906 H           1 DVA       0.2361
    112 H42        40.1697   53.1114   87.5587 H           1 DVA       0.1885
    113 H43        41.5861   53.6402   89.7888 H           1 DVA       0.0821
    114 H44        39.3704   52.5062   89.4989 H           1 DVA       0.0453
    115 H45        38.5901   54.0862   89.4514 H           1 DVA       0.0453
    116 H46        37.5633   52.2228   91.1875 H           1 DVA       0.0530
    117 H47        40.9234   54.6551   91.9852 H           1 DVA       0.0530
    118 H48        37.1424   52.0429   93.5473 H           1 DVA       0.0525
    119 H49        40.4843   54.4779   94.3321 H           1 DVA       0.0525
    120 H50        39.3610   52.7875   95.8678 H           1 DVA       0.2458
    121 H51        39.0329   55.9940   88.9710 H           1 DVA       0.1884
    122 H52        38.8382   58.1280   88.9231 H           1 DVA       0.0819
    123 H53        41.8536   58.2630   88.3469 H           1 DVA       0.0478
    124 H54        40.6751   59.5434   88.0322 H           1 DVA       0.0478
    125 H55        40.2855   56.8654   91.5330 H           1 DVA       0.1876
    126 H56        41.2108   57.5358   93.4007 H           1 DVA       0.0749
    127 H57        39.6819   58.5230   94.8737 H           1 DVA       0.0599
    128 H58        38.7201   57.6253   93.6921 H           1 DVA       0.0599
    129 H59        38.3850   59.6542   92.6260 H           1 DVA       0.2096
@<TRIPOS>BOND
     1     1     2   1
     2     2     3   1
     3     2     6   1
     4     3     4   1
     5     3     5   1
     6     6     7   2
     7     6     8  am
     8     8     9   1
     9     8    12   1
    10     9    10   1
    11     9    13   1
    12    10    11   1
    13    11    12   1
    14    13    14   2
    15    13    15  am
    16    15    16   1
    17    16    17   1
    18    17    18   2
    19    17    19  am
    20    19    20   1
    21    20    21   1
    22    20    23   1
    23    21    22   2
    24    21    25  am
    25    23    24   1
    26    25    26   1
    27    26    27   1
    28    26    29   1
    29    27    28   2
    30    27    34  am
    31    29    30   1
    32    30    31   1
    33    31    32   2
    34    31    33  am
    35    34    35   1
    36    35    36   1
    37    35    38   1
    38    36    37   2
    39    36    44  am
    40    38    39   1
    41    39    40   1
    42    39    41   2
    43    40    42   2
    44    41    43   1
    45    42    43   1
    46    44    45   1
    47    45    46   1
    48    45    48   1
    49    46    47   2
    50    46    56  am
    51    48    49   1
    52    49    50  ar
    53    49    51  ar
    54    50    52  ar
    55    51    53  ar
    56    52    54  ar
    57    53    54  ar
    58    54    55   1
    59    56    57   1
    60    57    58   1
    61    57    60   1
    62    58    59   2
    63    58    64  am
    64    60    61   1
    65    61    62  ar
    66    61    63  ar
    67    64    65   1
    68    65    66   1
    69    65    69   1
    70    66    67  ar
    71    66    68  ar
    72    69    70   1
    73     1    71   1
    74     1    72   1
    75     1    73   1
    76     2    74   1
    77     3    75   1
    78     4    76   1
    79     4    77   1
    80     4    78   1
    81     5    79   1
    82     5    80   1
    83     5    81   1
    84     9    82   1
    85    10    83   1
    86    10    84   1
    87    11    85   1
    88    11    86   1
    89    12    87   1
    90    12    88   1
    91    15    89   1
    92    16    90   1
    93    16    91   1
    94    19    92   1
    95    20    93   1
    96    23    94   1
    97    23    95   1
    98    24    96   1
    99    25    97   1
   100    26    98   1
   101    29    99   1
   102    29   100   1
   103    30   101   1
   104    30   102   1
   105    33   103   1
   106    33   104   1
   107    34   105   1
   108    35   106   1
   109    38   107   1
   110    38   108   1
   111    41   109   1
   112    42   110   1
   113    43   111   1
   114    44   112   1
   115    45   113   1
   116    48   114   1
   117    48   115   1
   118    50   116   1
   119    51   117   1
   120    52   118   1
   121    53   119   1
   122    55   120   1
   123    56   121   1
   124    57   122   1
   125    60   123   1
   126    60   124   1
   127    64   125   1
   128    65   126   1
   129    69   127   1
   130    69   128   1
   131    70   129   1
@<TRIPOS>SUBSTRUCTURE
     1  DVA      2

