@<TRIPOS>MOLECULE
1zea_ligand_016
   129   131
SMALL
GAST_HUCK
****
This file was generated by PARSER (from files_GN.cpp)

@<TRIPOS>ATOM
      1 N          49.1115   52.2433   82.5732 N.4         1 DVA       0.2381
      2 CA         49.1028   52.5169   81.1212 C.3         1 DVA       0.0675
      3 CB         49.1570   51.1846   80.2909 C.3         1 DVA       0.0139
      4 CG1        47.8614   50.3427   80.5038 C.3         1 DVA      -0.0553
      5 CG2        49.3763   51.4410   78.7676 C.3         1 DVA      -0.0553
      6 C          50.1891   53.4568   80.8163 C.2         1 DVA       0.2295
      7 O          51.2666   53.1859   81.3419 O.2         1 DVA      -0.3905
      8 N          50.1120   54.5206   79.9907 N.am        1 DVA      -0.2471
      9 CA         48.9336   54.9855   79.2865 C.3         1 DVA       0.1339
     10 CB         49.4044   56.1827   78.4235 C.3         1 DVA      -0.0104
     11 CG         50.9099   55.9492   78.2811 C.3         1 DVA      -0.0281
     12 CD         51.2824   55.2605   79.6036 C.3         1 DVA       0.0371
     13 C          47.8041   55.3691   80.1303 C.2         1 DVA       0.2039
     14 O          47.9490   56.2695   80.9513 O.2         1 DVA      -0.3944
     15 N          46.6483   54.7185   80.0179 N.am        1 DVA      -0.2664
     16 CA         45.4947   54.8511   80.8560 C.3         1 DVA       0.1201
     17 C          45.5141   53.8651   81.9239 C.2         1 DVA       0.2008
     18 O          46.2649   54.0741   82.8654 O.2         1 DVA      -0.3947
     19 N          44.7344   52.7898   81.8697 N.am        1 DVA      -0.2618
     20 CA         44.6556   51.7291   82.8456 C.3         1 DVA       0.1539
     21 C          43.3887   51.8466   83.5606 C.2         1 DVA       0.2062
     22 O          42.5476   50.9524   83.5020 O.2         1 DVA      -0.3943
     23 CB         44.9495   50.3652   82.1356 C.3         1 DVA       0.0843
     24 OG         43.7872   49.5469   81.9447 O.3         1 DVA      -0.3903
     25 N          43.1813   52.9284   84.3064 N.am        1 DVA      -0.2635
     26 CA         42.0428   53.2157   85.1314 C.3         1 DVA       0.1330
     27 C          42.5606   53.5464   86.4535 C.2         1 DVA       0.2041
     28 O          42.9500   54.6900   86.6632 O.2         1 DVA      -0.3944
     29 CB         41.1738   54.3517   84.5037 C.3         1 DVA       0.0045
     30 CG         40.7379   54.0274   83.0393 C.3         1 DVA       0.0412
     31 CD         39.3364   54.2600   82.7493 C.2         1 DVA       0.1737
     32 OE1        38.9723   54.7640   81.6936 O.2         1 DVA      -0.3973
     33 NE2        38.4107   53.7831   83.5496 N.am        1 DVA      -0.3009
     34 N          42.7184   52.5816   87.3592 N.am        1 DVA      -0.2625
     35 CA         43.3773   52.6971   88.6418 C.3         1 DVA       0.1369
     36 C          42.4562   53.1014   89.7036 C.2         1 DVA       0.2055
     37 O          42.9554   53.4709   90.7601 O.2         1 DVA      -0.3942
     38 CB         44.1398   51.3557   88.9528 C.3         1 DVA       0.0145
     39 CG         45.5993   51.2975   88.6775 C.2         1 DVA      -0.0027
     40 ND1        46.3877   50.3448   89.2122 N.2         1 DVA      -0.3252
     41 CD2        46.4149   52.0708   87.8515 C.2         1 DVA       0.0291
     42 CE1        47.6359   50.5270   88.7517 C.2         1 DVA       0.0907
     43 NE2        47.6568   51.5764   87.9233 N.pl3       1 DVA      -0.2752
     44 N          41.1417   53.2002   89.5090 N.am        1 DVA      -0.2620
     45 CA         40.1526   53.7691   90.3940 C.3         1 DVA       0.1390
     46 C          39.8416   52.9059   91.5385 C.2         1 DVA       0.2058
     47 O          40.5618   51.9534   91.8086 O.2         1 DVA      -0.3942
     48 CB         40.5158   55.2528   90.7792 C.3         1 DVA       0.0163
     49 CG         40.3648   56.2205   89.6509 C.ar        1 DVA      -0.0493
     50 CD1        40.8445   55.9090   88.3500 C.ar        1 DVA      -0.0685
     51 CD2        39.7452   57.4817   89.8397 C.ar        1 DVA      -0.0685
     52 CE1        40.6317   56.7847   87.2722 C.ar        1 DVA      -0.0398
     53 CE2        39.5292   58.3554   88.7626 C.ar        1 DVA      -0.0398
     54 CZ         39.9665   58.0109   87.4693 C.ar        1 DVA       0.0805
     55 OH         39.7428   58.8544   86.4310 O.3         1 DVA      -0.3376
     56 N          38.7061   53.0892   92.2088 N.am        1 DVA      -0.2620
     57 CA         38.2246   52.3193   93.3320 C.3         1 DVA       0.1423
     58 C          37.9201   50.9250   92.9926 C.2         1 DVA       0.2051
     59 O          38.1378   50.5091   91.8585 O.2         1 DVA      -0.3943
     60 CB         39.1527   52.4469   94.5860 C.3         1 DVA       0.0406
     61 CG         39.5372   53.8342   94.8976 C.2         1 DVA       0.0393
     62 OD1        38.6238   54.8326   94.8410 O.co2       1 DVA      -0.5688
     63 OD2        40.8147   54.1473   95.2121 O.co2       1 DVA      -0.5688
     64 N          37.3443   50.1368   93.8932 N.am        1 DVA      -0.2671
     65 CA         36.8680   48.7992   93.6887 C.3         1 DVA       0.1173
     66 C          37.9959   47.8604   93.8896 C.2         1 DVA       0.0623
     67 O          38.5461   47.2146   92.8419 O.co2       1 DVA      -0.5665
     68 OXT        38.5564   47.7024   95.1107 O.co2       1 DVA      -0.5665
     69 CB         35.6793   48.4906   94.6368 C.3         1 DVA       0.0789
     70 OG         35.9117   48.9078   95.9877 O.3         1 DVA      -0.3910
     71 H1         48.1843   51.9199   82.8573 H           1 DVA       0.2015
     72 H2         49.3419   53.0971   83.0882 H           1 DVA       0.2015
     73 H3         49.7949   51.5119   82.7871 H           1 DVA       0.2015
     74 H4         48.1342   52.9624   80.9151 H           1 DVA       0.1101
     75 H5         50.0024   50.5814   80.6481 H           1 DVA       0.0376
     76 H6         47.9583   49.3701   80.0205 H           1 DVA       0.0236
     77 H7         46.9823   50.8528   80.0983 H           1 DVA       0.0236
     78 H8         47.6844   50.1558   81.5635 H           1 DVA       0.0236
     79 H9         50.3422   51.9226   78.5946 H           1 DVA       0.0236
     80 H10        48.5860   52.0843   78.3667 H           1 DVA       0.0236
     81 H11        49.3777   50.4983   78.2144 H           1 DVA       0.0236
     82 H12        48.6321   54.1851   78.5994 H           1 DVA       0.0802
     83 H13        49.2381   57.1468   78.9162 H           1 DVA       0.0313
     84 H14        48.9095   56.1993   77.4473 H           1 DVA       0.0313
     85 H15        51.4611   56.8792   78.1305 H           1 DVA       0.0287
     86 H16        51.1014   55.2729   77.4413 H           1 DVA       0.0287
     87 H17        52.1527   54.6169   79.4312 H           1 DVA       0.0524
     88 H18        51.5261   55.9967   80.3763 H           1 DVA       0.0524
     89 H19        46.6043   54.0212   79.3385 H           1 DVA       0.1881
     90 H20        44.6201   54.7010   80.2203 H           1 DVA       0.0763
     91 H21        45.4263   55.8634   81.2699 H           1 DVA       0.0763
     92 H22        44.1466   52.7229   81.1042 H           1 DVA       0.1884
     93 H23        45.4436   51.8607   83.6034 H           1 DVA       0.0823
     94 H24        45.6707   49.7939   82.7435 H           1 DVA       0.0606
     95 H25        45.4144   50.5523   81.1577 H           1 DVA       0.0606
     96 H26        44.0869   48.8780   81.2971 H           1 DVA       0.2097
     97 H27        43.8798   53.6011   84.2923 H           1 DVA       0.1883
     98 H28        41.3851   52.3398   85.2132 H           1 DVA       0.0801
     99 H29        41.7246   55.3031   84.4980 H           1 DVA       0.0337
    100 H30        40.2856   54.4911   85.1350 H           1 DVA       0.0337
    101 H31        40.9248   52.9703   82.8200 H           1 DVA       0.0504
    102 H32        41.3594   54.6179   82.3573 H           1 DVA       0.0504
    103 H33        37.4735   53.8371   83.2903 H           1 DVA       0.1814
    104 H34        38.6582   53.3566   84.3931 H           1 DVA       0.1814
    105 H35        42.3783   51.6985   87.1222 H           1 DVA       0.1885
    106 H36        44.0969   53.5131   88.5893 H           1 DVA       0.0817
    107 H37        43.7013   50.5293   88.3860 H           1 DVA       0.0420
    108 H38        44.0058   51.0916   90.0066 H           1 DVA       0.0420
    109 H39        46.1384   52.8624   87.2683 H           1 DVA       0.0729
    110 H40        48.4449   49.9505   88.9875 H           1 DVA       0.1199
    111 H41        48.4296   51.9158   87.4467 H           1 DVA       0.2361
    112 H42        40.8004   52.8706   88.6592 H           1 DVA       0.1885
    113 H43        39.2269   53.8091   89.8077 H           1 DVA       0.0821
    114 H44        41.5420   55.3123   91.1494 H           1 DVA       0.0453
    115 H45        39.8811   55.5757   91.6089 H           1 DVA       0.0453
    116 H46        41.3396   55.0311   88.1720 H           1 DVA       0.0530
    117 H47        39.4267   57.7614   90.7673 H           1 DVA       0.0530
    118 H48        40.9631   56.5266   86.3336 H           1 DVA       0.0525
    119 H49        39.0529   59.2451   88.9185 H           1 DVA       0.0525
    120 H50        40.5307   58.7830   85.8497 H           1 DVA       0.2458
    121 H51        38.1327   53.8117   91.9024 H           1 DVA       0.1884
    122 H52        37.2658   52.7731   93.6021 H           1 DVA       0.0819
    123 H53        40.0553   51.8448   94.4383 H           1 DVA       0.0478
    124 H54        38.6424   52.0487   95.4665 H           1 DVA       0.0478
    125 H55        37.2119   50.5044   94.7821 H           1 DVA       0.1876
    126 H56        36.4972   48.6643   92.6676 H           1 DVA       0.0749
    127 H57        35.4662   47.4176   94.6686 H           1 DVA       0.0599
    128 H58        34.7791   48.9991   94.2742 H           1 DVA       0.0599
    129 H59        35.4471   49.7648   96.1169 H           1 DVA       0.2096
@<TRIPOS>BOND
     1     1     2   1
     2     2     3   1
     3     2     6   1
     4     3     4   1
     5     3     5   1
     6     6     7   2
     7     6     8  am
     8     8     9   1
     9     8    12   1
    10     9    10   1
    11     9    13   1
    12    10    11   1
    13    11    12   1
    14    13    14   2
    15    13    15  am
    16    15    16   1
    17    16    17   1
    18    17    18   2
    19    17    19  am
    20    19    20   1
    21    20    21   1
    22    20    23   1
    23    21    22   2
    24    21    25  am
    25    23    24   1
    26    25    26   1
    27    26    27   1
    28    26    29   1
    29    27    28   2
    30    27    34  am
    31    29    30   1
    32    30    31   1
    33    31    32   2
    34    31    33  am
    35    34    35   1
    36    35    36   1
    37    35    38   1
    38    36    37   2
    39    36    44  am
    40    38    39   1
    41    39    40   1
    42    39    41   2
    43    40    42   2
    44    41    43   1
    45    42    43   1
    46    44    45   1
    47    45    46   1
    48    45    48   1
    49    46    47   2
    50    46    56  am
    51    48    49   1
    52    49    50  ar
    53    49    51  ar
    54    50    52  ar
    55    51    53  ar
    56    52    54  ar
    57    53    54  ar
    58    54    55   1
    59    56    57   1
    60    57    58   1
    61    57    60   1
    62    58    59   2
    63    58    64  am
    64    60    61   1
    65    61    62  ar
    66    61    63  ar
    67    64    65   1
    68    65    66   1
    69    65    69   1
    70    66    67  ar
    71    66    68  ar
    72    69    70   1
    73     1    71   1
    74     1    72   1
    75     1    73   1
    76     2    74   1
    77     3    75   1
    78     4    76   1
    79     4    77   1
    80     4    78   1
    81     5    79   1
    82     5    80   1
    83     5    81   1
    84     9    82   1
    85    10    83   1
    86    10    84   1
    87    11    85   1
    88    11    86   1
    89    12    87   1
    90    12    88   1
    91    15    89   1
    92    16    90   1
    93    16    91   1
    94    19    92   1
    95    20    93   1
    96    23    94   1
    97    23    95   1
    98    24    96   1
    99    25    97   1
   100    26    98   1
   101    29    99   1
   102    29   100   1
   103    30   101   1
   104    30   102   1
   105    33   103   1
   106    33   104   1
   107    34   105   1
   108    35   106   1
   109    38   107   1
   110    38   108   1
   111    41   109   1
   112    42   110   1
   113    43   111   1
   114    44   112   1
   115    45   113   1
   116    48   114   1
   117    48   115   1
   118    50   116   1
   119    51   117   1
   120    52   118   1
   121    53   119   1
   122    55   120   1
   123    56   121   1
   124    57   122   1
   125    60   123   1
   126    60   124   1
   127    64   125   1
   128    65   126   1
   129    69   127   1
   130    69   128   1
   131    70   129   1
@<TRIPOS>SUBSTRUCTURE
     1  DVA      2

