@<TRIPOS>MOLECULE
1zea_ligand_030
   129   131
SMALL
GAST_HUCK
****
This file was generated by PARSER (from files_GN.cpp)

@<TRIPOS>ATOM
      1 N          34.7905   48.0676   93.6422 N.4         1 DVA       0.2381
      2 CA         35.9765   48.4704   94.4279 C.3         1 DVA       0.0675
      3 CB         37.1529   47.4374   94.2952 C.3         1 DVA       0.0139
      4 CG1        36.7166   45.9548   94.4850 C.3         1 DVA      -0.0553
      5 CG2        37.9209   47.6015   92.9480 C.3         1 DVA      -0.0553
      6 C          35.6042   48.7602   95.8171 C.2         1 DVA       0.2295
      7 O          34.7770   47.9982   96.3076 O.2         1 DVA      -0.3905
      8 N          36.1247   49.7337   96.5899 N.am        1 DVA      -0.2471
      9 CA         37.1337   50.6981   96.1945 C.3         1 DVA       0.1339
     10 CB         37.5101   51.4683   97.4893 C.3         1 DVA      -0.0104
     11 CG         37.0274   50.5589   98.6204 C.3         1 DVA      -0.0281
     12 CD         35.8255   49.8357   97.9953 C.3         1 DVA       0.0371
     13 C          36.7825   51.6484   95.1331 C.2         1 DVA       0.2039
     14 O          35.6807   51.5754   94.6104 O.2         1 DVA      -0.3944
     15 N          37.6911   52.5375   94.7516 N.am        1 DVA      -0.2664
     16 CA         37.6242   53.4084   93.6148 C.3         1 DVA       0.1201
     17 C          38.1491   52.6930   92.4697 C.2         1 DVA       0.2008
     18 O          37.9379   51.4865   92.3945 O.2         1 DVA      -0.3947
     19 N          38.8226   53.3231   91.5057 N.am        1 DVA      -0.2618
     20 CA         39.4426   52.7164   90.3567 C.3         1 DVA       0.1539
     21 C          39.8276   53.7756   89.4257 C.2         1 DVA       0.2062
     22 O          38.9965   54.1170   88.5915 O.2         1 DVA      -0.3943
     23 CB         40.5960   51.7692   90.7928 C.3         1 DVA       0.0843
     24 OG         41.3704   51.3568   89.6696 O.3         1 DVA      -0.3903
     25 N          41.0138   54.3662   89.4729 N.am        1 DVA      -0.2635
     26 CA         41.4984   55.4651   88.6705 C.3         1 DVA       0.1330
     27 C          41.5267   55.1270   87.2469 C.2         1 DVA       0.2041
     28 O          40.4669   55.0816   86.6313 O.2         1 DVA      -0.3944
     29 CB         40.7133   56.7769   88.9995 C.3         1 DVA       0.0045
     30 CG         41.1234   58.0529   88.1863 C.3         1 DVA       0.0412
     31 CD         39.9814   58.7877   87.6832 C.2         1 DVA       0.1737
     32 OE1        39.6224   58.6798   86.5184 O.2         1 DVA      -0.3973
     33 NE2        39.2386   59.5186   88.4960 N.am        1 DVA      -0.3009
     34 N          42.6770   54.9255   86.6085 N.am        1 DVA      -0.2625
     35 CA         42.8186   54.6861   85.1900 C.3         1 DVA       0.1369
     36 C          44.2333   54.6988   84.8165 C.2         1 DVA       0.2055
     37 O          44.7445   53.7177   84.2856 O.2         1 DVA      -0.3942
     38 CB         41.9729   53.4213   84.7617 C.3         1 DVA       0.0145
     39 CG         40.9856   53.7239   83.7086 C.2         1 DVA      -0.0027
     40 ND1        41.2306   53.7333   82.3794 N.2         1 DVA      -0.3252
     41 CD2        39.6555   54.0980   83.8886 C.2         1 DVA       0.0291
     42 CE1        40.0920   54.0912   81.7718 C.2         1 DVA       0.0907
     43 NE2        39.1354   54.3237   82.6787 N.pl3       1 DVA      -0.2752
     44 N          44.9782   55.7867   85.0484 N.am        1 DVA      -0.2620
     45 CA         46.3958   55.9478   84.8357 C.3         1 DVA       0.1390
     46 C          47.1075   54.7561   85.2962 C.2         1 DVA       0.2058
     47 O          47.1494   54.5433   86.5026 O.2         1 DVA      -0.3942
     48 CB         46.6907   56.4075   83.3652 C.3         1 DVA       0.0163
     49 CG         46.2120   57.7395   82.8798 C.ar        1 DVA      -0.0493
     50 CD1        45.6919   58.7612   83.7158 C.ar        1 DVA      -0.0685
     51 CD2        46.3250   58.0237   81.4924 C.ar        1 DVA      -0.0685
     52 CE1        45.2847   60.0049   83.1899 C.ar        1 DVA      -0.0398
     53 CE2        45.9049   59.2586   80.9628 C.ar        1 DVA      -0.0398
     54 CZ         45.3776   60.2524   81.8064 C.ar        1 DVA       0.0805
     55 OH         44.9874   61.4405   81.2750 O.3         1 DVA      -0.3376
     56 N          47.6309   53.8818   84.4461 N.am        1 DVA      -0.2620
     57 CA         48.1315   52.5628   84.7271 C.3         1 DVA       0.1423
     58 C          47.6012   51.6887   83.6860 C.2         1 DVA       0.2051
     59 O          48.0401   51.7681   82.5340 O.2         1 DVA      -0.3943
     60 CB         49.6850   52.5597   84.7967 C.3         1 DVA       0.0406
     61 CG         50.1978   53.4065   85.8964 C.2         1 DVA       0.0393
     62 OD1        49.9099   53.1213   87.1868 O.co2       1 DVA      -0.5688
     63 OD2        50.9152   54.5234   85.6309 O.co2       1 DVA      -0.5688
     64 N          46.5837   50.8734   83.9526 N.am        1 DVA      -0.2671
     65 CA         45.8233   50.1473   82.9819 C.3         1 DVA       0.1173
     66 C          46.7300   49.4309   82.0697 C.2         1 DVA       0.0623
     67 O          47.2692   48.2478   82.4097 O.co2       1 DVA      -0.5665
     68 OXT        47.1468   50.0345   80.9334 O.co2       1 DVA      -0.5665
     69 CB         44.8228   49.1980   83.6964 C.3         1 DVA       0.0789
     70 OG         43.8930   48.5949   82.7968 O.3         1 DVA      -0.3910
     71 H1         35.0430   47.9860   92.6549 H           1 DVA       0.2015
     72 H2         34.0584   48.7736   93.7417 H           1 DVA       0.2015
     73 H3         34.4306   47.1711   93.9747 H           1 DVA       0.2015
     74 H4         36.3104   49.3924   93.9583 H           1 DVA       0.1101
     75 H5         37.8817   47.6582   95.0869 H           1 DVA       0.0376
     76 H6         36.0596   45.6417   93.6728 H           1 DVA       0.0236
     77 H7         36.1933   45.8226   95.4314 H           1 DVA       0.0236
     78 H8         37.5897   45.2998   94.4963 H           1 DVA       0.0236
     79 H9         37.2552   47.4335   92.1009 H           1 DVA       0.0236
     80 H10        38.7467   46.8883   92.8859 H           1 DVA       0.0236
     81 H11        38.3402   48.6066   92.8679 H           1 DVA       0.0236
     82 H12        38.0092   50.1227   95.8725 H           1 DVA       0.0802
     83 H13        36.9877   52.4303   97.5666 H           1 DVA       0.0313
     84 H14        38.5882   51.6469   97.5542 H           1 DVA       0.0313
     85 H15        36.7387   51.1225   99.5091 H           1 DVA       0.0287
     86 H16        37.8067   49.8381   98.8824 H           1 DVA       0.0287
     87 H17        35.7077   48.8608   98.4832 H           1 DVA       0.0524
     88 H18        34.9052   50.4166   98.1285 H           1 DVA       0.0524
     89 H19        38.5295   52.5342   95.2366 H           1 DVA       0.1881
     90 H20        38.2116   54.3031   93.8321 H           1 DVA       0.0763
     91 H21        36.6070   53.7287   93.3885 H           1 DVA       0.0763
     92 H22        38.8039   54.2980   91.5394 H           1 DVA       0.1884
     93 H23        38.6969   52.0983   89.8542 H           1 DVA       0.0823
     94 H24        40.1863   50.8759   91.2728 H           1 DVA       0.0606
     95 H25        41.2549   52.2641   91.5116 H           1 DVA       0.0606
     96 H26        41.8552   50.5518   89.9702 H           1 DVA       0.2097
     97 H27        41.6339   54.0426   90.1445 H           1 DVA       0.1883
     98 H28        42.5309   55.6328   89.0000 H           1 DVA       0.0801
     99 H29        40.8464   56.9912   90.0660 H           1 DVA       0.0337
    100 H30        39.6466   56.5798   88.8610 H           1 DVA       0.0337
    101 H31        41.7811   57.7768   87.3554 H           1 DVA       0.0504
    102 H32        41.7128   58.7214   88.8233 H           1 DVA       0.0504
    103 H33        38.4385   59.9493   88.1671 H           1 DVA       0.1814
    104 H34        39.4789   59.5967   89.4324 H           1 DVA       0.1814
    105 H35        43.4970   55.0092   87.1246 H           1 DVA       0.1885
    106 H36        42.4061   55.5695   84.6939 H           1 DVA       0.0817
    107 H37        41.4219   53.0211   85.6179 H           1 DVA       0.0420
    108 H38        42.6126   52.6033   84.4269 H           1 DVA       0.0420
    109 H39        39.1640   54.2030   84.7803 H           1 DVA       0.0729
    110 H40        39.9716   54.1772   80.7600 H           1 DVA       0.1199
    111 H41        38.2268   54.6183   82.5009 H           1 DVA       0.2361
    112 H42        44.5157   56.5265   85.4785 H           1 DVA       0.1885
    113 H43        46.7339   56.7567   85.4861 H           1 DVA       0.0821
    114 H44        46.2765   55.6529   82.6966 H           1 DVA       0.0453
    115 H45        47.7705   56.4179   83.2199 H           1 DVA       0.0453
    116 H46        45.6142   58.6232   84.7303 H           1 DVA       0.0530
    117 H47        46.7112   57.3251   80.8568 H           1 DVA       0.0530
    118 H48        44.9260   60.7278   83.8141 H           1 DVA       0.0525
    119 H49        45.9880   59.4313   79.9550 H           1 DVA       0.0525
    120 H50        44.2152   61.7393   81.8022 H           1 DVA       0.2458
    121 H51        47.6297   54.1241   83.5071 H           1 DVA       0.1884
    122 H52        47.7655   52.2103   85.6996 H           1 DVA       0.0819
    123 H53        50.1001   52.9190   83.8527 H           1 DVA       0.0478
    124 H54        50.0460   51.5414   84.9615 H           1 DVA       0.0478
    125 H55        46.2897   50.8207   84.8830 H           1 DVA       0.1876
    126 H56        45.2292   50.8666   82.4156 H           1 DVA       0.0749
    127 H57        44.2441   49.7641   84.4321 H           1 DVA       0.0599
    128 H58        45.3561   48.4033   84.2255 H           1 DVA       0.0599
    129 H59        44.4225   48.3216   82.0196 H           1 DVA       0.2096
@<TRIPOS>BOND
     1     1     2   1
     2     2     3   1
     3     2     6   1
     4     3     4   1
     5     3     5   1
     6     6     7   2
     7     6     8  am
     8     8     9   1
     9     8    12   1
    10     9    10   1
    11     9    13   1
    12    10    11   1
    13    11    12   1
    14    13    14   2
    15    13    15  am
    16    15    16   1
    17    16    17   1
    18    17    18   2
    19    17    19  am
    20    19    20   1
    21    20    21   1
    22    20    23   1
    23    21    22   2
    24    21    25  am
    25    23    24   1
    26    25    26   1
    27    26    27   1
    28    26    29   1
    29    27    28   2
    30    27    34  am
    31    29    30   1
    32    30    31   1
    33    31    32   2
    34    31    33  am
    35    34    35   1
    36    35    36   1
    37    35    38   1
    38    36    37   2
    39    36    44  am
    40    38    39   1
    41    39    40   1
    42    39    41   2
    43    40    42   2
    44    41    43   1
    45    42    43   1
    46    44    45   1
    47    45    46   1
    48    45    48   1
    49    46    47   2
    50    46    56  am
    51    48    49   1
    52    49    50  ar
    53    49    51  ar
    54    50    52  ar
    55    51    53  ar
    56    52    54  ar
    57    53    54  ar
    58    54    55   1
    59    56    57   1
    60    57    58   1
    61    57    60   1
    62    58    59   2
    63    58    64  am
    64    60    61   1
    65    61    62  ar
    66    61    63  ar
    67    64    65   1
    68    65    66   1
    69    65    69   1
    70    66    67  ar
    71    66    68  ar
    72    69    70   1
    73     1    71   1
    74     1    72   1
    75     1    73   1
    76     2    74   1
    77     3    75   1
    78     4    76   1
    79     4    77   1
    80     4    78   1
    81     5    79   1
    82     5    80   1
    83     5    81   1
    84     9    82   1
    85    10    83   1
    86    10    84   1
    87    11    85   1
    88    11    86   1
    89    12    87   1
    90    12    88   1
    91    15    89   1
    92    16    90   1
    93    16    91   1
    94    19    92   1
    95    20    93   1
    96    23    94   1
    97    23    95   1
    98    24    96   1
    99    25    97   1
   100    26    98   1
   101    29    99   1
   102    29   100   1
   103    30   101   1
   104    30   102   1
   105    33   103   1
   106    33   104   1
   107    34   105   1
   108    35   106   1
   109    38   107   1
   110    38   108   1
   111    41   109   1
   112    42   110   1
   113    43   111   1
   114    44   112   1
   115    45   113   1
   116    48   114   1
   117    48   115   1
   118    50   116   1
   119    51   117   1
   120    52   118   1
   121    53   119   1
   122    55   120   1
   123    56   121   1
   124    57   122   1
   125    60   123   1
   126    60   124   1
   127    64   125   1
   128    65   126   1
   129    69   127   1
   130    69   128   1
   131    70   129   1
@<TRIPOS>SUBSTRUCTURE
     1  DVA      2

