@<TRIPOS>MOLECULE
1zea_ligand_041
   129   131
SMALL
GAST_HUCK
****
This file was generated by PARSER (from files_GN.cpp)

@<TRIPOS>ATOM
      1 N          43.0510   52.3033   94.4779 N.4         1 DVA       0.2381
      2 CA         42.0560   53.3745   94.6755 C.3         1 DVA       0.0675
      3 CB         42.5969   54.5347   95.5895 C.3         1 DVA       0.0139
      4 CG1        43.1739   54.0724   96.9617 C.3         1 DVA      -0.0553
      5 CG2        43.6530   55.4041   94.8469 C.3         1 DVA      -0.0553
      6 C          40.7898   52.7950   95.1477 C.2         1 DVA       0.2295
      7 O          40.8601   52.1569   96.1945 O.2         1 DVA      -0.3905
      8 N          39.5925   52.8881   94.5359 N.am        1 DVA      -0.2471
      9 CA         39.3166   53.5834   93.2955 C.3         1 DVA       0.1339
     10 CB         37.7763   53.7650   93.3134 C.3         1 DVA      -0.0104
     11 CG         37.2677   52.5563   94.1023 C.3         1 DVA      -0.0281
     12 CD         38.4028   52.3081   95.1073 C.3         1 DVA       0.0371
     13 C          39.7760   52.8732   92.1007 C.2         1 DVA       0.2039
     14 O          40.3017   51.7712   92.2100 O.2         1 DVA      -0.3944
     15 N          39.5642   53.4067   90.9002 N.am        1 DVA      -0.2664
     16 CA         39.7753   52.7637   89.6354 C.3         1 DVA       0.1201
     17 C          40.3778   53.6339   88.6430 C.2         1 DVA       0.2008
     18 O          39.7035   54.5476   88.1857 O.2         1 DVA      -0.3947
     19 N          41.5764   53.3525   88.1406 N.am        1 DVA      -0.2618
     20 CA         42.2267   54.0002   87.0286 C.3         1 DVA       0.1539
     21 C          43.4568   53.2975   86.6573 C.2         1 DVA       0.2062
     22 O          44.4836   53.9552   86.5306 O.2         1 DVA      -0.3943
     23 CB         41.3077   54.1048   85.7753 C.3         1 DVA       0.0843
     24 OG         41.9841   54.6964   84.6656 O.3         1 DVA      -0.3903
     25 N          43.4422   52.0001   86.3502 N.am        1 DVA      -0.2635
     26 CA         44.4948   51.2059   85.7675 C.3         1 DVA       0.1330
     27 C          45.7986   51.5758   86.3099 C.2         1 DVA       0.2041
     28 O          46.0832   51.2590   87.4572 O.2         1 DVA      -0.3944
     29 CB         44.1446   49.7008   85.9875 C.3         1 DVA       0.0045
     30 CG         45.0631   48.6613   85.2876 C.3         1 DVA       0.0412
     31 CD         44.9686   48.6649   83.8388 C.2         1 DVA       0.1737
     32 OE1        43.8856   48.4865   83.2931 O.2         1 DVA      -0.3973
     33 NE2        46.0420   48.7462   83.0841 N.am        1 DVA      -0.3009
     34 N          46.6140   52.3457   85.5964 N.am        1 DVA      -0.2625
     35 CA         47.8139   52.9997   86.0492 C.3         1 DVA       0.1369
     36 C          48.5772   53.3674   84.8589 C.2         1 DVA       0.2055
     37 O          48.3942   54.4554   84.3230 O.2         1 DVA      -0.3942
     38 CB         47.4799   54.1880   87.0150 C.3         1 DVA       0.0145
     39 CG         48.6636   54.8277   87.6330 C.2         1 DVA      -0.0027
     40 ND1        49.5724   55.5816   86.9884 N.2         1 DVA      -0.3252
     41 CD2        49.0147   54.8114   88.9794 C.2         1 DVA       0.0291
     42 CE1        50.4608   56.0088   87.9009 C.2         1 DVA       0.0907
     43 NE2        50.1251   55.5424   89.1124 N.pl3       1 DVA      -0.2752
     44 N          49.4467   52.4975   84.3510 N.am        1 DVA      -0.2620
     45 CA         50.3961   52.7003   83.2911 C.3         1 DVA       0.1390
     46 C          49.7389   52.8628   81.9911 C.2         1 DVA       0.2058
     47 O          49.5342   53.9905   81.5522 O.2         1 DVA      -0.3942
     48 CB         51.4273   53.8196   83.6637 C.3         1 DVA       0.0163
     49 CG         52.7380   53.6881   82.9645 C.ar        1 DVA      -0.0493
     50 CD1        53.2161   54.7049   82.1038 C.ar        1 DVA      -0.0685
     51 CD2        53.5536   52.5535   83.1904 C.ar        1 DVA      -0.0685
     52 CE1        54.4719   54.5855   81.4807 C.ar        1 DVA      -0.0398
     53 CE2        54.8137   52.4386   82.5778 C.ar        1 DVA      -0.0398
     54 CZ         55.2793   53.4569   81.7220 C.ar        1 DVA       0.0805
     55 OH         56.4997   53.3799   81.1307 O.3         1 DVA      -0.3376
     56 N          49.3424   51.7914   81.3120 N.am        1 DVA      -0.2620
     57 CA         48.7262   51.7617   80.0021 C.3         1 DVA       0.1423
     58 C          49.6645   51.3312   78.9608 C.2         1 DVA       0.2051
     59 O          49.2776   51.4265   77.8021 O.2         1 DVA      -0.3943
     60 CB         47.4564   50.8535   80.0814 C.3         1 DVA       0.0406
     61 CG         46.3182   51.5373   80.7303 C.2         1 DVA       0.0393
     62 OD1        45.7916   51.0809   81.8880 O.co2       1 DVA      -0.5688
     63 OD2        45.7531   52.6209   80.1428 O.co2       1 DVA      -0.5688
     64 N          50.9055   50.9492   79.2464 N.am        1 DVA      -0.2671
     65 CA         52.0275   50.6006   78.4115 C.3         1 DVA       0.1173
     66 C          52.4014   49.1909   78.6684 C.2         1 DVA       0.0623
     67 O          52.3286   48.6940   79.9258 O.co2       1 DVA      -0.5665
     68 OXT        53.3066   48.5834   77.8676 O.co2       1 DVA      -0.5665
     69 CB         51.9500   50.9394   76.8882 C.3         1 DVA       0.0789
     70 OG         50.8623   50.2918   76.2234 O.3         1 DVA      -0.3910
     71 H1         43.9163   52.6989   94.1047 H           1 DVA       0.2015
     72 H2         42.6869   51.6141   93.8148 H           1 DVA       0.2015
     73 H3         43.2468   51.8416   95.3688 H           1 DVA       0.2015
     74 H4         41.9114   53.7934   93.6799 H           1 DVA       0.1101
     75 H5         41.7541   55.2010   95.8058 H           1 DVA       0.0376
     76 H6         43.5361   54.9322   97.5318 H           1 DVA       0.0236
     77 H7         44.0066   53.3798   96.8192 H           1 DVA       0.0236
     78 H8         42.4079   53.5833   97.5653 H           1 DVA       0.0236
     79 H9         43.2379   55.8016   93.9188 H           1 DVA       0.0236
     80 H10        44.5421   54.8175   94.6091 H           1 DVA       0.0236
     81 H11        43.9539   56.2521   95.4659 H           1 DVA       0.0236
     82 H12        39.7691   54.5808   93.3144 H           1 DVA       0.0802
     83 H13        37.3215   53.8109   92.3202 H           1 DVA       0.0313
     84 H14        37.5166   54.6831   93.8530 H           1 DVA       0.0313
     85 H15        37.1500   51.6980   93.4352 H           1 DVA       0.0287
     86 H16        36.3164   52.7626   94.5978 H           1 DVA       0.0287
     87 H17        38.1732   52.7957   96.0605 H           1 DVA       0.0524
     88 H18        38.5220   51.2327   95.2746 H           1 DVA       0.0524
     89 H19        39.0902   54.2552   90.8780 H           1 DVA       0.1881
     90 H20        38.7932   52.4636   89.2591 H           1 DVA       0.0763
     91 H21        40.3746   51.8558   89.7473 H           1 DVA       0.0763
     92 H22        42.0473   52.6084   88.5489 H           1 DVA       0.1884
     93 H23        42.4781   55.0193   87.3448 H           1 DVA       0.0823
     94 H24        40.4393   54.7272   85.9952 H           1 DVA       0.0606
     95 H25        40.9567   53.1100   85.4830 H           1 DVA       0.0606
     96 H26        42.3344   55.5445   85.0116 H           1 DVA       0.2097
     97 H27        42.5922   51.5457   86.4623 H           1 DVA       0.1883
     98 H28        44.4733   51.4057   84.6912 H           1 DVA       0.0801
     99 H29        43.1197   49.5328   85.6453 H           1 DVA       0.0337
    100 H30        44.1566   49.4928   87.0614 H           1 DVA       0.0337
    101 H31        44.7577   47.6678   85.6278 H           1 DVA       0.0504
    102 H32        46.0960   48.8139   85.6188 H           1 DVA       0.0504
    103 H33        45.9474   48.6921   82.1194 H           1 DVA       0.1814
    104 H34        46.9251   48.8241   83.4908 H           1 DVA       0.1814
    105 H35        46.3325   52.5385   84.6890 H           1 DVA       0.1885
    106 H36        48.4026   52.2697   86.6173 H           1 DVA       0.0817
    107 H37        46.8336   53.8210   87.8145 H           1 DVA       0.0420
    108 H38        46.9146   54.9549   86.4789 H           1 DVA       0.0420
    109 H39        48.5197   54.3327   89.7334 H           1 DVA       0.0729
    110 H40        51.2695   56.5988   87.7035 H           1 DVA       0.1199
    111 H41        50.6032   55.7072   89.9390 H           1 DVA       0.2361
    112 H42        49.4850   51.6330   84.7939 H           1 DVA       0.1885
    113 H43        50.9638   51.7644   83.2631 H           1 DVA       0.0821
    114 H44        51.6244   53.7864   84.7416 H           1 DVA       0.0453
    115 H45        50.9885   54.8045   83.4739 H           1 DVA       0.0453
    116 H46        52.6493   55.5365   81.9187 H           1 DVA       0.0530
    117 H47        53.2427   51.8070   83.8162 H           1 DVA       0.0530
    118 H48        54.8045   55.3324   80.8661 H           1 DVA       0.0525
    119 H49        55.3922   51.6165   82.7635 H           1 DVA       0.0525
    120 H50        57.0206   52.7435   81.6639 H           1 DVA       0.2458
    121 H51        49.5235   50.9298   81.7264 H           1 DVA       0.1884
    122 H52        48.3965   52.7695   79.7113 H           1 DVA       0.0819
    123 H53        47.6977   49.9325   80.6269 H           1 DVA       0.0478
    124 H54        47.1312   50.5680   79.0749 H           1 DVA       0.0478
    125 H55        51.1015   50.8925   80.1976 H           1 DVA       0.1876
    126 H56        52.8517   51.2041   78.8028 H           1 DVA       0.0749
    127 H57        52.8836   50.6398   76.3995 H           1 DVA       0.0599
    128 H58        51.8497   52.0177   76.7633 H           1 DVA       0.0599
    129 H59        51.0743   49.3353   76.2479 H           1 DVA       0.2096
@<TRIPOS>BOND
     1     1     2   1
     2     2     3   1
     3     2     6   1
     4     3     4   1
     5     3     5   1
     6     6     7   2
     7     6     8  am
     8     8     9   1
     9     8    12   1
    10     9    10   1
    11     9    13   1
    12    10    11   1
    13    11    12   1
    14    13    14   2
    15    13    15  am
    16    15    16   1
    17    16    17   1
    18    17    18   2
    19    17    19  am
    20    19    20   1
    21    20    21   1
    22    20    23   1
    23    21    22   2
    24    21    25  am
    25    23    24   1
    26    25    26   1
    27    26    27   1
    28    26    29   1
    29    27    28   2
    30    27    34  am
    31    29    30   1
    32    30    31   1
    33    31    32   2
    34    31    33  am
    35    34    35   1
    36    35    36   1
    37    35    38   1
    38    36    37   2
    39    36    44  am
    40    38    39   1
    41    39    40   1
    42    39    41   2
    43    40    42   2
    44    41    43   1
    45    42    43   1
    46    44    45   1
    47    45    46   1
    48    45    48   1
    49    46    47   2
    50    46    56  am
    51    48    49   1
    52    49    50  ar
    53    49    51  ar
    54    50    52  ar
    55    51    53  ar
    56    52    54  ar
    57    53    54  ar
    58    54    55   1
    59    56    57   1
    60    57    58   1
    61    57    60   1
    62    58    59   2
    63    58    64  am
    64    60    61   1
    65    61    62  ar
    66    61    63  ar
    67    64    65   1
    68    65    66   1
    69    65    69   1
    70    66    67  ar
    71    66    68  ar
    72    69    70   1
    73     1    71   1
    74     1    72   1
    75     1    73   1
    76     2    74   1
    77     3    75   1
    78     4    76   1
    79     4    77   1
    80     4    78   1
    81     5    79   1
    82     5    80   1
    83     5    81   1
    84     9    82   1
    85    10    83   1
    86    10    84   1
    87    11    85   1
    88    11    86   1
    89    12    87   1
    90    12    88   1
    91    15    89   1
    92    16    90   1
    93    16    91   1
    94    19    92   1
    95    20    93   1
    96    23    94   1
    97    23    95   1
    98    24    96   1
    99    25    97   1
   100    26    98   1
   101    29    99   1
   102    29   100   1
   103    30   101   1
   104    30   102   1
   105    33   103   1
   106    33   104   1
   107    34   105   1
   108    35   106   1
   109    38   107   1
   110    38   108   1
   111    41   109   1
   112    42   110   1
   113    43   111   1
   114    44   112   1
   115    45   113   1
   116    48   114   1
   117    48   115   1
   118    50   116   1
   119    51   117   1
   120    52   118   1
   121    53   119   1
   122    55   120   1
   123    56   121   1
   124    57   122   1
   125    60   123   1
   126    60   124   1
   127    64   125   1
   128    65   126   1
   129    69   127   1
   130    69   128   1
   131    70   129   1
@<TRIPOS>SUBSTRUCTURE
     1  DVA      2

