@<TRIPOS>MOLECULE
1zea_ligand_092
   129   131
SMALL
GAST_HUCK
****
This file was generated by PARSER (from files_GN.cpp)

@<TRIPOS>ATOM
      1 N          49.2287   52.1317   84.0048 N.4         1 DVA       0.2381
      2 CA         49.8576   53.4276   83.6985 C.3         1 DVA       0.0675
      3 CB         51.4266   53.3140   83.7222 C.3         1 DVA       0.0139
      4 CG1        52.1332   54.6826   83.5122 C.3         1 DVA      -0.0553
      5 CG2        52.0241   52.5804   84.9578 C.3         1 DVA      -0.0553
      6 C          49.2511   54.4614   84.5506 C.2         1 DVA       0.2295
      7 O          49.6260   54.4765   85.7182 O.2         1 DVA      -0.3905
      8 N          48.3013   55.3409   84.1695 N.am        1 DVA      -0.2471
      9 CA         47.5362   55.3054   82.9414 C.3         1 DVA       0.1339
     10 CB         46.5373   56.4913   83.0342 C.3         1 DVA      -0.0104
     11 CG         47.1540   57.4213   84.0820 C.3         1 DVA      -0.0281
     12 CD         47.9281   56.4588   84.9951 C.3         1 DVA       0.0371
     13 C          46.8217   54.0434   82.7285 C.2         1 DVA       0.2039
     14 O          46.1274   53.6286   83.6485 O.2         1 DVA      -0.3944
     15 N          46.9807   53.3528   81.6000 N.am        1 DVA      -0.2664
     16 CA         46.4438   52.0720   81.2122 C.3         1 DVA       0.1201
     17 C          45.3715   51.5098   82.0200 C.2         1 DVA       0.2008
     18 O          44.2568   51.9983   81.8911 O.2         1 DVA      -0.3947
     19 N          45.6700   50.6585   82.9973 N.am        1 DVA      -0.2618
     20 CA         44.9055   50.2198   84.1422 C.3         1 DVA       0.1539
     21 C          43.5369   50.7216   84.2845 C.2         1 DVA       0.2062
     22 O          42.6518   50.2195   83.6050 O.2         1 DVA      -0.3943
     23 CB         45.0017   48.6717   84.2685 C.3         1 DVA       0.0843
     24 OG         44.2340   47.9775   83.2855 O.3         1 DVA      -0.3903
     25 N          43.2926   51.7849   85.0462 N.am        1 DVA      -0.2635
     26 CA         42.0557   52.5216   85.1865 C.3         1 DVA       0.1330
     27 C          42.1425   53.4550   86.3185 C.2         1 DVA       0.2041
     28 O          43.2198   53.9862   86.5624 O.2         1 DVA      -0.3944
     29 CB         41.6805   53.2372   83.8458 C.3         1 DVA       0.0045
     30 CG         40.2678   53.9003   83.7894 C.3         1 DVA       0.0412
     31 CD         39.6491   53.8933   82.4678 C.2         1 DVA       0.1737
     32 OE1        38.4627   53.6250   82.3375 O.2         1 DVA      -0.3973
     33 NE2        40.3294   54.1424   81.3697 N.am        1 DVA      -0.3009
     34 N          41.0820   53.6729   87.1009 N.am        1 DVA      -0.2625
     35 CA         41.0057   54.2881   88.4144 C.3         1 DVA       0.1369
     36 C          41.4438   53.3835   89.4878 C.2         1 DVA       0.2055
     37 O          41.8805   52.2725   89.2170 O.2         1 DVA      -0.3942
     38 CB         41.6398   55.7239   88.5200 C.3         1 DVA       0.0145
     39 CG         40.8340   56.7864   87.8819 C.2         1 DVA      -0.0027
     40 ND1        41.1683   57.4915   86.7878 N.2         1 DVA      -0.3252
     41 CD2        39.6385   57.3020   88.3739 C.2         1 DVA       0.0291
     42 CE1        40.1964   58.3995   86.5976 C.2         1 DVA       0.0907
     43 NE2        39.2684   58.2922   87.5577 N.pl3       1 DVA      -0.2752
     44 N          41.2932   53.7545   90.7590 N.am        1 DVA      -0.2620
     45 CA         41.6610   53.0880   91.9858 C.3         1 DVA       0.1390
     46 C          40.8113   51.9241   92.2485 C.2         1 DVA       0.2058
     47 O          40.8697   50.9743   91.4780 O.2         1 DVA      -0.3942
     48 CB         43.1942   52.7923   92.2186 C.3         1 DVA       0.0163
     49 CG         44.1182   53.0868   91.0903 C.ar        1 DVA      -0.0493
     50 CD1        44.7035   52.0420   90.3381 C.ar        1 DVA      -0.0685
     51 CD2        44.4076   54.4244   90.7306 C.ar        1 DVA      -0.0685
     52 CE1        45.5200   52.3222   89.2288 C.ar        1 DVA      -0.0398
     53 CE2        45.2344   54.7069   89.6253 C.ar        1 DVA      -0.0398
     54 CZ         45.7873   53.6560   88.8655 C.ar        1 DVA       0.0805
     55 OH         46.5750   53.9004   87.7883 O.3         1 DVA      -0.3376
     56 N          40.0653   51.8582   93.3512 N.am        1 DVA      -0.2620
     57 CA         39.2711   50.7382   93.7913 C.3         1 DVA       0.1423
     58 C          38.9375   50.9414   95.2036 C.2         1 DVA       0.2051
     59 O          37.8050   51.2740   95.5316 O.2         1 DVA      -0.3943
     60 CB         38.0430   50.5090   92.8476 C.3         1 DVA       0.0406
     61 CG         37.4308   49.1778   93.0204 C.2         1 DVA       0.0393
     62 OD1        37.4532   48.2712   92.0153 O.co2       1 DVA      -0.5688
     63 OD2        36.8202   48.8389   94.1783 O.co2       1 DVA      -0.5688
     64 N          39.8884   50.8109   96.1255 N.am        1 DVA      -0.2671
     65 CA         39.7632   50.9479   97.5540 C.3         1 DVA       0.1173
     66 C          39.2344   52.2766   97.9468 C.2         1 DVA       0.0623
     67 O          39.8881   53.3961   97.5642 O.co2       1 DVA      -0.5665
     68 OXT        38.1274   52.4218   98.7082 O.co2       1 DVA      -0.5665
     69 CB         39.0292   49.7392   98.2019 C.3         1 DVA       0.0789
     70 OG         37.6599   49.6416   97.8214 O.3         1 DVA      -0.3910
     71 H1         49.6313   51.3985   83.4161 H           1 DVA       0.2015
     72 H2         48.2221   52.1827   83.8295 H           1 DVA       0.2015
     73 H3         49.3823   51.8919   84.9885 H           1 DVA       0.2015
     74 H4         49.6042   53.6326   82.6595 H           1 DVA       0.1101
     75 H5         51.7007   52.6980   82.8585 H           1 DVA       0.0376
     76 H6         52.0027   55.3272   84.3840 H           1 DVA       0.0236
     77 H7         51.7282   55.1934   82.6357 H           1 DVA       0.0236
     78 H8         53.2057   54.5355   83.3522 H           1 DVA       0.0236
     79 H9         51.8169   53.1213   85.8819 H           1 DVA       0.0236
     80 H10        53.1089   52.4865   84.8533 H           1 DVA       0.0236
     81 H11        51.6164   51.5718   85.0424 H           1 DVA       0.0236
     82 H12        48.2211   55.5079   82.1099 H           1 DVA       0.0802
     83 H13        45.5465   56.1799   83.3858 H           1 DVA       0.0313
     84 H14        46.4177   56.9980   82.0730 H           1 DVA       0.0313
     85 H15        46.3939   57.9828   84.6320 H           1 DVA       0.0287
     86 H16        47.8410   58.1229   83.6012 H           1 DVA       0.0287
     87 H17        48.7998   56.9793   85.4071 H           1 DVA       0.0524
     88 H18        47.2938   56.1164   85.8182 H           1 DVA       0.0524
     89 H19        47.5952   53.7429   80.9579 H           1 DVA       0.1881
     90 H20        47.2873   51.3802   81.1751 H           1 DVA       0.0763
     91 H21        46.0825   52.1711   80.1850 H           1 DVA       0.0763
     92 H22        46.5931   50.3578   83.0040 H           1 DVA       0.1884
     93 H23        45.4788   50.6053   84.9925 H           1 DVA       0.0823
     94 H24        44.6511   48.3566   85.2551 H           1 DVA       0.0606
     95 H25        46.0453   48.3606   84.1762 H           1 DVA       0.0606
     96 H26        44.6146   48.2273   82.4157 H           1 DVA       0.2097
     97 H27        44.0499   52.1189   85.5535 H           1 DVA       0.1883
     98 H28        41.2715   51.7907   85.4083 H           1 DVA       0.0801
     99 H29        41.7311   52.4929   83.0484 H           1 DVA       0.0337
    100 H30        42.4366   53.9966   83.6146 H           1 DVA       0.0337
    101 H31        40.3517   54.9358   84.1219 H           1 DVA       0.0504
    102 H32        39.6000   53.3871   84.4846 H           1 DVA       0.0504
    103 H33        39.8900   54.0783   80.5059 H           1 DVA       0.1814
    104 H34        41.2804   54.3332   81.4129 H           1 DVA       0.1814
    105 H35        40.2615   53.2531   86.8078 H           1 DVA       0.1885
    106 H36        39.9318   54.4048   88.5984 H           1 DVA       0.0817
    107 H37        42.6443   55.7329   88.1008 H           1 DVA       0.0420
    108 H38        41.7521   56.0249   89.5623 H           1 DVA       0.0420
    109 H39        39.1415   56.9980   89.2104 H           1 DVA       0.0729
    110 H40        40.1745   59.0770   85.8363 H           1 DVA       0.1199
    111 H41        38.4695   58.8370   87.6565 H           1 DVA       0.2361
    112 H42        40.8973   54.6319   90.8864 H           1 DVA       0.1885
    113 H43        41.4032   53.8368   92.7413 H           1 DVA       0.0821
    114 H44        43.3259   51.7471   92.5277 H           1 DVA       0.0453
    115 H45        43.5418   53.3739   93.0771 H           1 DVA       0.0453
    116 H46        44.5126   51.0660   90.5742 H           1 DVA       0.0530
    117 H47        44.0077   55.2003   91.2609 H           1 DVA       0.0530
    118 H48        45.9193   51.5535   88.6869 H           1 DVA       0.0525
    119 H49        45.4283   55.6784   89.3741 H           1 DVA       0.0525
    120 H50        46.7537   54.8644   87.7947 H           1 DVA       0.2458
    121 H51        40.0976   52.6263   93.9451 H           1 DVA       0.1884
    122 H52        39.8977   49.8400   93.7433 H           1 DVA       0.0819
    123 H53        38.3576   50.6026   91.8073 H           1 DVA       0.0478
    124 H54        37.2848   51.2763   93.0180 H           1 DVA       0.0478
    125 H55        40.7769   50.5950   95.7958 H           1 DVA       0.1876
    126 H56        40.7856   50.9131   97.9409 H           1 DVA       0.0749
    127 H57        39.0766   49.8280   99.2895 H           1 DVA       0.0599
    128 H58        39.5316   48.8112   97.9183 H           1 DVA       0.0599
    129 H59        37.3194   48.8484   98.2914 H           1 DVA       0.2096
@<TRIPOS>BOND
     1     1     2   1
     2     2     3   1
     3     2     6   1
     4     3     4   1
     5     3     5   1
     6     6     7   2
     7     6     8  am
     8     8     9   1
     9     8    12   1
    10     9    10   1
    11     9    13   1
    12    10    11   1
    13    11    12   1
    14    13    14   2
    15    13    15  am
    16    15    16   1
    17    16    17   1
    18    17    18   2
    19    17    19  am
    20    19    20   1
    21    20    21   1
    22    20    23   1
    23    21    22   2
    24    21    25  am
    25    23    24   1
    26    25    26   1
    27    26    27   1
    28    26    29   1
    29    27    28   2
    30    27    34  am
    31    29    30   1
    32    30    31   1
    33    31    32   2
    34    31    33  am
    35    34    35   1
    36    35    36   1
    37    35    38   1
    38    36    37   2
    39    36    44  am
    40    38    39   1
    41    39    40   1
    42    39    41   2
    43    40    42   2
    44    41    43   1
    45    42    43   1
    46    44    45   1
    47    45    46   1
    48    45    48   1
    49    46    47   2
    50    46    56  am
    51    48    49   1
    52    49    50  ar
    53    49    51  ar
    54    50    52  ar
    55    51    53  ar
    56    52    54  ar
    57    53    54  ar
    58    54    55   1
    59    56    57   1
    60    57    58   1
    61    57    60   1
    62    58    59   2
    63    58    64  am
    64    60    61   1
    65    61    62  ar
    66    61    63  ar
    67    64    65   1
    68    65    66   1
    69    65    69   1
    70    66    67  ar
    71    66    68  ar
    72    69    70   1
    73     1    71   1
    74     1    72   1
    75     1    73   1
    76     2    74   1
    77     3    75   1
    78     4    76   1
    79     4    77   1
    80     4    78   1
    81     5    79   1
    82     5    80   1
    83     5    81   1
    84     9    82   1
    85    10    83   1
    86    10    84   1
    87    11    85   1
    88    11    86   1
    89    12    87   1
    90    12    88   1
    91    15    89   1
    92    16    90   1
    93    16    91   1
    94    19    92   1
    95    20    93   1
    96    23    94   1
    97    23    95   1
    98    24    96   1
    99    25    97   1
   100    26    98   1
   101    29    99   1
   102    29   100   1
   103    30   101   1
   104    30   102   1
   105    33   103   1
   106    33   104   1
   107    34   105   1
   108    35   106   1
   109    38   107   1
   110    38   108   1
   111    41   109   1
   112    42   110   1
   113    43   111   1
   114    44   112   1
   115    45   113   1
   116    48   114   1
   117    48   115   1
   118    50   116   1
   119    51   117   1
   120    52   118   1
   121    53   119   1
   122    55   120   1
   123    56   121   1
   124    57   122   1
   125    60   123   1
   126    60   124   1
   127    64   125   1
   128    65   126   1
   129    69   127   1
   130    69   128   1
   131    70   129   1
@<TRIPOS>SUBSTRUCTURE
     1  DVA      2

