@<TRIPOS>MOLECULE
1zea_ligand_095
   129   131
SMALL
GAST_HUCK
****
This file was generated by PARSER (from files_GN.cpp)

@<TRIPOS>ATOM
      1 N          51.7211   49.4003   78.3494 N.4         1 DVA       0.2381
      2 CA         51.7458   50.8665   78.1739 C.3         1 DVA       0.0675
      3 CB         52.6028   51.2941   76.9260 C.3         1 DVA       0.0139
      4 CG1        54.0383   50.6917   76.8848 C.3         1 DVA      -0.0553
      5 CG2        51.8707   50.9821   75.5892 C.3         1 DVA      -0.0553
      6 C          52.1616   51.5080   79.4287 C.2         1 DVA       0.2295
      7 O          53.2443   51.1430   79.8724 O.2         1 DVA      -0.3905
      8 N          51.4705   52.4400   80.1152 N.am        1 DVA      -0.2471
      9 CA         50.1644   52.9593   79.7808 C.3         1 DVA       0.1339
     10 CB         50.0847   54.2868   80.5765 C.3         1 DVA      -0.0104
     11 CG         50.9343   54.0186   81.8227 C.3         1 DVA      -0.0281
     12 CD         52.0147   53.0628   81.2979 C.3         1 DVA       0.0371
     13 C          49.0558   52.0539   80.1015 C.2         1 DVA       0.2039
     14 O          49.2686   50.9537   80.5972 O.2         1 DVA      -0.3944
     15 N          47.8171   52.4289   79.8223 N.am        1 DVA      -0.2664
     16 CA         46.6090   51.7152   80.1223 C.3         1 DVA       0.1201
     17 C          46.2812   51.6399   81.5380 C.2         1 DVA       0.2008
     18 O          46.4490   52.6370   82.2344 O.2         1 DVA      -0.3947
     19 N          45.7090   50.5473   82.0370 N.am        1 DVA      -0.2618
     20 CA         45.2563   50.3514   83.3897 C.3         1 DVA       0.1539
     21 C          43.9134   50.9006   83.5890 C.2         1 DVA       0.2062
     22 O          43.0154   50.5074   82.8542 O.2         1 DVA      -0.3943
     23 CB         45.2990   48.8394   83.7458 C.3         1 DVA       0.0843
     24 OG         44.3975   48.0390   82.9762 O.3         1 DVA      -0.3903
     25 N          43.6558   51.7600   84.5743 N.am        1 DVA      -0.2635
     26 CA         42.3754   52.3342   84.9058 C.3         1 DVA       0.1330
     27 C          42.3489   52.9714   86.2248 C.2         1 DVA       0.2041
     28 O          43.3643   53.0160   86.9028 O.2         1 DVA      -0.3944
     29 CB         41.8603   53.2802   83.7615 C.3         1 DVA       0.0045
     30 CG         42.9105   54.1772   83.0318 C.3         1 DVA       0.0412
     31 CD         43.8303   54.8840   83.9071 C.2         1 DVA       0.1737
     32 OE1        45.0359   54.8097   83.7148 O.2         1 DVA      -0.3973
     33 NE2        43.3976   55.6825   84.8519 N.am        1 DVA      -0.3009
     34 N          41.1935   53.4038   86.7337 N.am        1 DVA      -0.2625
     35 CA         40.9310   54.0187   88.0220 C.3         1 DVA       0.1369
     36 C          41.0817   53.1098   89.1637 C.2         1 DVA       0.2055
     37 O          41.4065   51.9332   89.0085 O.2         1 DVA      -0.3942
     38 CB         41.6853   55.3888   88.2028 C.3         1 DVA       0.0145
     39 CG         40.8978   56.5616   87.7716 C.2         1 DVA      -0.0027
     40 ND1        41.1976   57.3769   86.7432 N.2         1 DVA      -0.3252
     41 CD2        39.7473   57.0622   88.3785 C.2         1 DVA       0.0291
     42 CE1        40.2565   58.3363   86.7068 C.2         1 DVA       0.0907
     43 NE2        39.3733   58.1520   87.6996 N.pl3       1 DVA      -0.2752
     44 N          40.7886   53.5595   90.3828 N.am        1 DVA      -0.2620
     45 CA         40.7557   52.8425   91.6302 C.3         1 DVA       0.1390
     46 C          39.4948   52.1289   91.8133 C.2         1 DVA       0.2058
     47 O          38.6772   52.0585   90.9008 O.2         1 DVA      -0.3942
     48 CB         42.0127   51.9626   91.9045 C.3         1 DVA       0.0163
     49 CG         43.3112   52.5993   91.5793 C.ar        1 DVA      -0.0493
     50 CD1        44.1866   52.0164   90.6376 C.ar        1 DVA      -0.0685
     51 CD2        43.7015   53.8017   92.2162 C.ar        1 DVA      -0.0685
     52 CE1        45.4178   52.6203   90.3309 C.ar        1 DVA      -0.0398
     53 CE2        44.9378   54.4110   91.9066 C.ar        1 DVA      -0.0398
     54 CZ         45.7993   53.8174   90.9594 C.ar        1 DVA       0.0805
     55 OH         46.9798   54.4190   90.6598 O.3         1 DVA      -0.3376
     56 N          39.2083   51.6671   93.0248 N.am        1 DVA      -0.2620
     57 CA         37.9409   51.1771   93.4889 C.3         1 DVA       0.1423
     58 C          38.0636   49.7995   93.9367 C.2         1 DVA       0.2051
     59 O          38.9297   49.5249   94.7601 O.2         1 DVA      -0.3943
     60 CB         37.3907   52.0770   94.6477 C.3         1 DVA       0.0406
     61 CG         37.5322   53.5258   94.4153 C.2         1 DVA       0.0393
     62 OD1        36.4505   54.3259   94.2268 O.co2       1 DVA      -0.5688
     63 OD2        38.7382   54.1230   94.5957 O.co2       1 DVA      -0.5688
     64 N          37.1815   48.8844   93.5496 N.am        1 DVA      -0.2671
     65 CA         37.0472   47.5566   94.0849 C.3         1 DVA       0.1173
     66 C          35.7048   47.0492   93.7586 C.2         1 DVA       0.0623
     67 O          35.3348   46.7977   92.4777 O.co2       1 DVA      -0.5665
     68 OXT        34.7508   46.9811   94.7196 O.co2       1 DVA      -0.5665
     69 CB         38.1664   46.6033   93.5755 C.3         1 DVA       0.0789
     70 OG         38.0190   45.2806   94.0980 O.3         1 DVA      -0.3910
     71 H1         51.5478   48.9425   77.4543 H           1 DVA       0.2015
     72 H2         50.9671   49.1393   78.9889 H           1 DVA       0.2015
     73 H3         52.6170   49.0756   78.7174 H           1 DVA       0.2015
     74 H4         50.7095   51.1277   77.9569 H           1 DVA       0.1101
     75 H5         52.7165   52.3835   76.9648 H           1 DVA       0.0376
     76 H6         54.5810   51.0644   76.0126 H           1 DVA       0.0236
     77 H7         54.0013   49.6019   76.8262 H           1 DVA       0.0236
     78 H8         54.6131   50.9745   77.7670 H           1 DVA       0.0236
     79 H9         50.9052   51.4890   75.5550 H           1 DVA       0.0236
     80 H10        51.7056   49.9094   75.4752 H           1 DVA       0.0236
     81 H11        52.4602   51.3325   74.7384 H           1 DVA       0.0236
     82 H12        50.1183   53.2143   78.7177 H           1 DVA       0.0802
     83 H13        49.0685   54.5914   80.8393 H           1 DVA       0.0313
     84 H14        50.5447   55.0965   79.9960 H           1 DVA       0.0313
     85 H15        50.3281   53.5288   82.5907 H           1 DVA       0.0287
     86 H16        51.3616   54.9405   82.2332 H           1 DVA       0.0287
     87 H17        52.9175   53.6269   81.0394 H           1 DVA       0.0524
     88 H18        52.2606   52.3219   82.0627 H           1 DVA       0.0524
     89 H19        47.7084   53.2785   79.3643 H           1 DVA       0.1881
     90 H20        46.6652   50.7162   79.6798 H           1 DVA       0.0763
     91 H21        45.7947   52.2487   79.6317 H           1 DVA       0.0763
     92 H22        45.5780   49.8048   81.4179 H           1 DVA       0.1884
     93 H23        45.9616   50.8393   84.0671 H           1 DVA       0.0823
     94 H24        45.0409   48.7062   84.7977 H           1 DVA       0.0606
     95 H25        46.3116   48.4621   83.5980 H           1 DVA       0.0606
     96 H26        44.7195   48.0957   82.0556 H           1 DVA       0.2097
     97 H27        44.4007   51.9996   85.1403 H           1 DVA       0.1883
     98 H28        41.6638   51.5051   84.9763 H           1 DVA       0.0801
     99 H29        41.0611   53.9362   84.1388 H           1 DVA       0.0337
    100 H30        41.3826   52.6597   82.9882 H           1 DVA       0.0337
    101 H31        42.3704   54.9265   82.4403 H           1 DVA       0.0504
    102 H32        43.4629   53.5515   82.3196 H           1 DVA       0.0504
    103 H33        44.0291   56.1886   85.3728 H           1 DVA       0.1814
    104 H34        42.4508   55.7810   85.0062 H           1 DVA       0.1814
    105 H35        40.4094   53.2777   86.1785 H           1 DVA       0.1885
    106 H36        39.8607   54.2232   88.0138 H           1 DVA       0.0817
    107 H37        42.6228   55.3697   87.6492 H           1 DVA       0.0420
    108 H38        41.9641   55.5673   89.2444 H           1 DVA       0.0420
    109 H39        39.2668   56.6763   89.1911 H           1 DVA       0.0729
    110 H40        40.2258   59.1018   86.0305 H           1 DVA       0.1199
    111 H41        38.6011   58.7141   87.8887 H           1 DVA       0.2361
    112 H42        40.5321   54.4997   90.4329 H           1 DVA       0.1885
    113 H43        40.7547   53.6423   92.3785 H           1 DVA       0.0821
    114 H44        41.8975   51.0291   91.3527 H           1 DVA       0.0453
    115 H45        42.0265   51.6940   92.9670 H           1 DVA       0.0453
    116 H46        43.9427   51.1441   90.1725 H           1 DVA       0.0530
    117 H47        43.0956   54.2525   92.9057 H           1 DVA       0.0530
    118 H48        46.0420   52.1921   89.6433 H           1 DVA       0.0525
    119 H49        45.2015   55.2958   92.3588 H           1 DVA       0.0525
    120 H50        47.1552   54.1786   89.7223 H           1 DVA       0.2458
    121 H51        39.9025   51.7488   93.6921 H           1 DVA       0.1884
    122 H52        37.1958   51.2374   92.6940 H           1 DVA       0.0819
    123 H53        37.8907   51.8456   95.5970 H           1 DVA       0.0478
    124 H54        36.3232   51.8523   94.7821 H           1 DVA       0.0478
    125 H55        36.4838   49.1749   92.9390 H           1 DVA       0.1876
    126 H56        37.1308   47.6079   95.1763 H           1 DVA       0.0749
    127 H57        39.1477   46.9762   93.8798 H           1 DVA       0.0599
    128 H58        38.1505   46.5509   92.4838 H           1 DVA       0.0599
    129 H59        38.0839   45.3799   95.0714 H           1 DVA       0.2096
@<TRIPOS>BOND
     1     1     2   1
     2     2     3   1
     3     2     6   1
     4     3     4   1
     5     3     5   1
     6     6     7   2
     7     6     8  am
     8     8     9   1
     9     8    12   1
    10     9    10   1
    11     9    13   1
    12    10    11   1
    13    11    12   1
    14    13    14   2
    15    13    15  am
    16    15    16   1
    17    16    17   1
    18    17    18   2
    19    17    19  am
    20    19    20   1
    21    20    21   1
    22    20    23   1
    23    21    22   2
    24    21    25  am
    25    23    24   1
    26    25    26   1
    27    26    27   1
    28    26    29   1
    29    27    28   2
    30    27    34  am
    31    29    30   1
    32    30    31   1
    33    31    32   2
    34    31    33  am
    35    34    35   1
    36    35    36   1
    37    35    38   1
    38    36    37   2
    39    36    44  am
    40    38    39   1
    41    39    40   1
    42    39    41   2
    43    40    42   2
    44    41    43   1
    45    42    43   1
    46    44    45   1
    47    45    46   1
    48    45    48   1
    49    46    47   2
    50    46    56  am
    51    48    49   1
    52    49    50  ar
    53    49    51  ar
    54    50    52  ar
    55    51    53  ar
    56    52    54  ar
    57    53    54  ar
    58    54    55   1
    59    56    57   1
    60    57    58   1
    61    57    60   1
    62    58    59   2
    63    58    64  am
    64    60    61   1
    65    61    62  ar
    66    61    63  ar
    67    64    65   1
    68    65    66   1
    69    65    69   1
    70    66    67  ar
    71    66    68  ar
    72    69    70   1
    73     1    71   1
    74     1    72   1
    75     1    73   1
    76     2    74   1
    77     3    75   1
    78     4    76   1
    79     4    77   1
    80     4    78   1
    81     5    79   1
    82     5    80   1
    83     5    81   1
    84     9    82   1
    85    10    83   1
    86    10    84   1
    87    11    85   1
    88    11    86   1
    89    12    87   1
    90    12    88   1
    91    15    89   1
    92    16    90   1
    93    16    91   1
    94    19    92   1
    95    20    93   1
    96    23    94   1
    97    23    95   1
    98    24    96   1
    99    25    97   1
   100    26    98   1
   101    29    99   1
   102    29   100   1
   103    30   101   1
   104    30   102   1
   105    33   103   1
   106    33   104   1
   107    34   105   1
   108    35   106   1
   109    38   107   1
   110    38   108   1
   111    41   109   1
   112    42   110   1
   113    43   111   1
   114    44   112   1
   115    45   113   1
   116    48   114   1
   117    48   115   1
   118    50   116   1
   119    51   117   1
   120    52   118   1
   121    53   119   1
   122    55   120   1
   123    56   121   1
   124    57   122   1
   125    60   123   1
   126    60   124   1
   127    64   125   1
   128    65   126   1
   129    69   127   1
   130    69   128   1
   131    70   129   1
@<TRIPOS>SUBSTRUCTURE
     1  DVA      2

