@<TRIPOS>MOLECULE
1zea_ligand_023
   129   131
SMALL
GAST_HUCK
****
This file was generated by PARSER (from files_GN.cpp)

@<TRIPOS>ATOM
      1 N          39.6502   53.9014   90.8550 N.4         1 DVA       0.2381
      2 CA         39.7525   53.2523   92.1794 C.3         1 DVA       0.0675
      3 CB         40.0997   51.7247   92.0698 C.3         1 DVA       0.0139
      4 CG1        38.8706   50.7720   92.1073 C.3         1 DVA      -0.0553
      5 CG2        40.9860   51.4251   90.8242 C.3         1 DVA      -0.0553
      6 C          38.5351   53.5489   92.9571 C.2         1 DVA       0.2295
      7 O          37.4802   53.1995   92.4379 O.2         1 DVA      -0.3905
      8 N          38.4697   54.1706   94.1491 N.am        1 DVA      -0.2471
      9 CA         39.5925   54.6875   94.9004 C.3         1 DVA       0.1339
     10 CB         39.0266   54.8261   96.3409 C.3         1 DVA      -0.0104
     11 CG         37.5396   55.1206   96.1243 C.3         1 DVA      -0.0281
     12 CD         37.2222   54.3242   94.8506 C.3         1 DVA       0.0371
     13 C          40.1519   55.9471   94.4017 C.2         1 DVA       0.2039
     14 O          41.0770   56.4396   95.0342 O.2         1 DVA      -0.3944
     15 N          39.7088   56.5465   93.2972 N.am        1 DVA      -0.2664
     16 CA         40.1307   57.8154   92.7710 C.3         1 DVA       0.1201
     17 C          41.5316   57.8597   92.3761 C.2         1 DVA       0.2008
     18 O          42.3562   58.2084   93.2090 O.2         1 DVA      -0.3947
     19 N          41.9067   57.4963   91.1516 N.am        1 DVA      -0.2618
     20 CA         43.2568   57.4437   90.6500 C.3         1 DVA       0.1539
     21 C          43.2743   56.8060   89.3293 C.2         1 DVA       0.2062
     22 O          43.9295   55.7841   89.1379 O.2         1 DVA      -0.3943
     23 CB         43.9634   58.8389   90.6088 C.3         1 DVA       0.0843
     24 OG         43.7176   59.5748   89.4045 O.3         1 DVA      -0.3903
     25 N          42.5798   57.4059   88.3591 N.am        1 DVA      -0.2635
     26 CA         42.3738   57.1183   86.9578 C.3         1 DVA       0.1330
     27 C          43.0446   55.9413   86.4047 C.2         1 DVA       0.2041
     28 O          44.1876   56.0700   85.9671 O.2         1 DVA      -0.3944
     29 CB         40.8314   57.0804   86.6899 C.3         1 DVA       0.0045
     30 CG         40.0648   58.4357   86.7862 C.3         1 DVA       0.0412
     31 CD         40.1467   59.1532   88.0529 C.2         1 DVA       0.1737
     32 OE1        41.2060   59.6314   88.4482 O.2         1 DVA      -0.3973
     33 NE2        39.0690   59.4654   88.7364 N.am        1 DVA      -0.3009
     34 N          42.4494   54.7517   86.4195 N.am        1 DVA      -0.2625
     35 CA         43.0003   53.5163   85.9463 C.3         1 DVA       0.1369
     36 C          43.7692   52.9488   87.0544 C.2         1 DVA       0.2055
     37 O          43.1745   52.5021   88.0347 O.2         1 DVA      -0.3942
     38 CB         41.8970   52.5408   85.4246 C.3         1 DVA       0.0145
     39 CG         41.0817   53.0700   84.3113 C.2         1 DVA      -0.0027
     40 ND1        41.0513   52.5755   83.0551 N.2         1 DVA      -0.3252
     41 CD2        40.1439   54.0963   84.3756 C.2         1 DVA       0.0291
     42 CE1        40.1483   53.2863   82.3640 C.2         1 DVA       0.0907
     43 NE2        39.5995   54.2191   83.1683 N.pl3       1 DVA      -0.2752
     44 N          45.0893   53.1092   87.0777 N.am        1 DVA      -0.2620
     45 CA         45.9660   52.7618   88.1717 C.3         1 DVA       0.1390
     46 C          46.3102   51.3483   88.0914 C.2         1 DVA       0.2058
     47 O          46.0234   50.6151   89.0535 O.2         1 DVA      -0.3942
     48 CB         47.2322   53.6729   88.1676 C.3         1 DVA       0.0163
     49 CG         48.0601   53.5267   89.4021 C.ar        1 DVA      -0.0493
     50 CD1        49.3216   52.8841   89.3706 C.ar        1 DVA      -0.0685
     51 CD2        47.5848   54.0412   90.6316 C.ar        1 DVA      -0.0685
     52 CE1        50.0889   52.7635   90.5422 C.ar        1 DVA      -0.0398
     53 CE2        48.3529   53.9119   91.8022 C.ar        1 DVA      -0.0398
     54 CZ         49.6067   53.2787   91.7603 C.ar        1 DVA       0.0805
     55 OH         50.3420   53.1756   92.8912 O.3         1 DVA      -0.3376
     56 N          46.8638   50.8627   86.9933 N.am        1 DVA      -0.2620
     57 CA         47.1547   49.4870   86.6881 C.3         1 DVA       0.1423
     58 C          47.1348   49.3679   85.2263 C.2         1 DVA       0.2051
     59 O          48.1135   48.9549   84.6124 O.2         1 DVA      -0.3943
     60 CB         48.5114   49.0381   87.3377 C.3         1 DVA       0.0406
     61 CG         48.4482   48.7082   88.7803 C.2         1 DVA       0.0393
     62 OD1        47.2812   48.8399   89.4463 O.co2       1 DVA      -0.5688
     63 OD2        49.3145   47.7836   89.2637 O.co2       1 DVA      -0.5688
     64 N          46.0472   49.7235   84.5459 N.am        1 DVA      -0.2671
     65 CA         45.8756   49.6399   83.1177 C.3         1 DVA       0.1173
     66 C          44.4282   49.5094   82.8185 C.2         1 DVA       0.0623
     67 O          43.6486   50.5902   82.5905 O.co2       1 DVA      -0.5665
     68 OXT        43.8091   48.3170   82.9518 O.co2       1 DVA      -0.5665
     69 CB         46.5116   50.8470   82.3738 C.3         1 DVA       0.0789
     70 OG         46.5861   50.6063   80.9693 O.3         1 DVA      -0.3910
     71 H1         40.5464   53.8701   90.3775 H           1 DVA       0.2015
     72 H2         39.3714   54.8760   90.9796 H           1 DVA       0.2015
     73 H3         38.9445   53.4220   90.2875 H           1 DVA       0.2015
     74 H4         40.6127   53.7319   92.6473 H           1 DVA       0.1101
     75 H5         40.7047   51.4741   92.9487 H           1 DVA       0.0376
     76 H6         39.1703   49.7334   91.9420 H           1 DVA       0.0236
     77 H7         38.1438   51.0517   91.3452 H           1 DVA       0.0236
     78 H8         38.3840   50.8083   93.0849 H           1 DVA       0.0236
     79 H9         41.8995   52.0238   90.8514 H           1 DVA       0.0236
     80 H10        40.4572   51.6463   89.8980 H           1 DVA       0.0236
     81 H11        41.2714   50.3740   90.7931 H           1 DVA       0.0236
     82 H12        40.3937   53.9461   94.9362 H           1 DVA       0.0802
     83 H13        39.5006   55.6095   96.9362 H           1 DVA       0.0313
     84 H14        39.1342   53.8772   96.8750 H           1 DVA       0.0313
     85 H15        37.3961   56.1920   95.9500 H           1 DVA       0.0287
     86 H16        36.9327   54.8040   96.9746 H           1 DVA       0.0287
     87 H17        36.8204   53.3430   95.1169 H           1 DVA       0.0524
     88 H18        36.4900   54.8613   94.2469 H           1 DVA       0.0524
     89 H19        38.9837   56.1161   92.8075 H           1 DVA       0.1881
     90 H20        39.9350   58.5947   93.5144 H           1 DVA       0.0763
     91 H21        39.4966   58.0377   91.9059 H           1 DVA       0.0763
     92 H22        41.1984   57.1988   90.5526 H           1 DVA       0.1884
     93 H23        43.8356   56.8173   91.3338 H           1 DVA       0.0823
     94 H24        45.0465   58.6955   90.7053 H           1 DVA       0.0606
     95 H25        43.6423   59.4635   91.4511 H           1 DVA       0.0606
     96 H26        44.1110   60.4594   89.5832 H           1 DVA       0.2097
     97 H27        42.1253   58.2294   88.6273 H           1 DVA       0.1883
     98 H28        42.7553   57.9956   86.4237 H           1 DVA       0.0801
     99 H29        40.3556   56.3475   87.3565 H           1 DVA       0.0337
    100 H30        40.6685   56.7347   85.6637 H           1 DVA       0.0337
    101 H31        39.0110   58.2145   86.5838 H           1 DVA       0.0504
    102 H32        40.3997   59.0823   85.9706 H           1 DVA       0.0504
    103 H33        39.1513   60.0047   89.5467 H           1 DVA       0.1814
    104 H34        38.1835   59.2110   88.4112 H           1 DVA       0.1814
    105 H35        41.5728   54.7067   86.8343 H           1 DVA       0.1885
    106 H36        43.6735   53.6798   85.0976 H           1 DVA       0.0817
    107 H37        41.2232   52.2539   86.2479 H           1 DVA       0.0420
    108 H38        42.3880   51.6219   85.0746 H           1 DVA       0.0420
    109 H39        39.9059   54.6407   85.2032 H           1 DVA       0.0729
    110 H40        39.9193   53.1576   81.3832 H           1 DVA       0.1199
    111 H41        38.9083   54.8554   82.9184 H           1 DVA       0.2361
    112 H42        45.4989   53.5699   86.3288 H           1 DVA       0.1885
    113 H43        45.4222   52.9804   89.0978 H           1 DVA       0.0821
    114 H44        46.9086   54.7173   88.0919 H           1 DVA       0.0453
    115 H45        47.8301   53.4596   87.2734 H           1 DVA       0.0453
    116 H46        49.6858   52.5037   88.4942 H           1 DVA       0.0530
    117 H47        46.6840   54.5214   90.6777 H           1 DVA       0.0530
    118 H48        50.9972   52.2994   90.5041 H           1 DVA       0.0525
    119 H49        47.9972   54.2907   92.6795 H           1 DVA       0.0525
    120 H50        50.8598   54.0091   92.9429 H           1 DVA       0.2458
    121 H51        47.0352   51.5051   86.2740 H           1 DVA       0.1884
    122 H52        46.3573   48.8358   87.0607 H           1 DVA       0.0819
    123 H53        49.2442   49.8453   87.1911 H           1 DVA       0.0478
    124 H54        48.8913   48.1574   86.8070 H           1 DVA       0.0478
    125 H55        45.2771   50.0258   85.0639 H           1 DVA       0.1876
    126 H56        46.3647   48.7195   82.7637 H           1 DVA       0.0749
    127 H57        47.5277   51.0212   82.7372 H           1 DVA       0.0599
    128 H58        45.9356   51.7629   82.5526 H           1 DVA       0.0599
    129 H59        46.0889   49.7743   80.8235 H           1 DVA       0.2096
@<TRIPOS>BOND
     1     1     2   1
     2     2     3   1
     3     2     6   1
     4     3     4   1
     5     3     5   1
     6     6     7   2
     7     6     8  am
     8     8     9   1
     9     8    12   1
    10     9    10   1
    11     9    13   1
    12    10    11   1
    13    11    12   1
    14    13    14   2
    15    13    15  am
    16    15    16   1
    17    16    17   1
    18    17    18   2
    19    17    19  am
    20    19    20   1
    21    20    21   1
    22    20    23   1
    23    21    22   2
    24    21    25  am
    25    23    24   1
    26    25    26   1
    27    26    27   1
    28    26    29   1
    29    27    28   2
    30    27    34  am
    31    29    30   1
    32    30    31   1
    33    31    32   2
    34    31    33  am
    35    34    35   1
    36    35    36   1
    37    35    38   1
    38    36    37   2
    39    36    44  am
    40    38    39   1
    41    39    40   1
    42    39    41   2
    43    40    42   2
    44    41    43   1
    45    42    43   1
    46    44    45   1
    47    45    46   1
    48    45    48   1
    49    46    47   2
    50    46    56  am
    51    48    49   1
    52    49    50  ar
    53    49    51  ar
    54    50    52  ar
    55    51    53  ar
    56    52    54  ar
    57    53    54  ar
    58    54    55   1
    59    56    57   1
    60    57    58   1
    61    57    60   1
    62    58    59   2
    63    58    64  am
    64    60    61   1
    65    61    62  ar
    66    61    63  ar
    67    64    65   1
    68    65    66   1
    69    65    69   1
    70    66    67  ar
    71    66    68  ar
    72    69    70   1
    73     1    71   1
    74     1    72   1
    75     1    73   1
    76     2    74   1
    77     3    75   1
    78     4    76   1
    79     4    77   1
    80     4    78   1
    81     5    79   1
    82     5    80   1
    83     5    81   1
    84     9    82   1
    85    10    83   1
    86    10    84   1
    87    11    85   1
    88    11    86   1
    89    12    87   1
    90    12    88   1
    91    15    89   1
    92    16    90   1
    93    16    91   1
    94    19    92   1
    95    20    93   1
    96    23    94   1
    97    23    95   1
    98    24    96   1
    99    25    97   1
   100    26    98   1
   101    29    99   1
   102    29   100   1
   103    30   101   1
   104    30   102   1
   105    33   103   1
   106    33   104   1
   107    34   105   1
   108    35   106   1
   109    38   107   1
   110    38   108   1
   111    41   109   1
   112    42   110   1
   113    43   111   1
   114    44   112   1
   115    45   113   1
   116    48   114   1
   117    48   115   1
   118    50   116   1
   119    51   117   1
   120    52   118   1
   121    53   119   1
   122    55   120   1
   123    56   121   1
   124    57   122   1
   125    60   123   1
   126    60   124   1
   127    64   125   1
   128    65   126   1
   129    69   127   1
   130    69   128   1
   131    70   129   1
@<TRIPOS>SUBSTRUCTURE
     1  DVA      2

