@<TRIPOS>MOLECULE
1zea_ligand_046
   129   131
SMALL
GAST_HUCK
****
This file was generated by PARSER (from files_GN.cpp)

@<TRIPOS>ATOM
      1 N          51.8549   48.8645   78.6101 N.4         1 DVA       0.2381
      2 CA         52.0973   50.2902   78.8959 C.3         1 DVA       0.0675
      3 CB         53.2529   50.8725   78.0079 C.3         1 DVA       0.0139
      4 CG1        54.5909   50.0876   78.1257 C.3         1 DVA      -0.0553
      5 CG2        52.8310   50.9896   76.5137 C.3         1 DVA      -0.0553
      6 C          52.3146   50.4924   80.3345 C.2         1 DVA       0.2295
      7 O          52.8462   49.5638   80.9332 O.2         1 DVA      -0.3905
      8 N          52.0156   51.6123   81.0182 N.am        1 DVA      -0.2471
      9 CA         51.3485   52.7786   80.4816 C.3         1 DVA       0.1339
     10 CB         51.6610   53.8999   81.5052 C.3         1 DVA      -0.0104
     11 CG         51.8260   53.1512   82.8308 C.3         1 DVA      -0.0281
     12 CD         52.4102   51.7990   82.3914 C.3         1 DVA       0.0371
     13 C          49.9131   52.6300   80.2456 C.2         1 DVA       0.2039
     14 O          49.3836   53.4314   79.4810 O.2         1 DVA      -0.3944
     15 N          49.1899   51.6676   80.8174 N.am        1 DVA      -0.2664
     16 CA         47.7987   51.3863   80.5952 C.3         1 DVA       0.1201
     17 C          47.1081   51.2219   81.8539 C.2         1 DVA       0.2008
     18 O          47.2860   52.0738   82.7247 O.2         1 DVA      -0.3947
     19 N          46.3166   50.1740   82.0760 N.am        1 DVA      -0.2618
     20 CA         45.6522   49.8779   83.3139 C.3         1 DVA       0.1539
     21 C          44.4635   50.7058   83.4980 C.2         1 DVA       0.2062
     22 O          43.4325   50.4150   82.9096 O.2         1 DVA      -0.3943
     23 CB         45.3167   48.3664   83.4333 C.3         1 DVA       0.0843
     24 OG         44.0875   48.0026   82.8172 O.3         1 DVA      -0.3903
     25 N          44.5140   51.7381   84.3297 N.am        1 DVA      -0.2635
     26 CA         43.4447   52.6341   84.6678 C.3         1 DVA       0.1330
     27 C          43.6721   52.9851   86.0673 C.2         1 DVA       0.2041
     28 O          44.5775   53.7753   86.3259 O.2         1 DVA      -0.3944
     29 CB         43.4042   53.8886   83.7194 C.3         1 DVA       0.0045
     30 CG         42.0297   54.1757   83.0541 C.3         1 DVA       0.0412
     31 CD         40.9203   54.1924   83.9925 C.2         1 DVA       0.1737
     32 OE1        40.8457   55.0574   84.8528 O.2         1 DVA      -0.3973
     33 NE2        39.9535   53.3115   83.9282 N.am        1 DVA      -0.3009
     34 N          42.9933   52.3919   87.0420 N.am        1 DVA      -0.2625
     35 CA         43.2489   52.5293   88.4508 C.3         1 DVA       0.1369
     36 C          43.1675   53.9343   88.8473 C.2         1 DVA       0.2055
     37 O          42.0774   54.4006   89.1656 O.2         1 DVA      -0.3942
     38 CB         42.2833   51.6045   89.2478 C.3         1 DVA       0.0145
     39 CG         42.2714   51.8243   90.7072 C.2         1 DVA      -0.0027
     40 ND1        43.3243   52.1408   91.4856 N.2         1 DVA      -0.3252
     41 CD2        41.1618   51.7115   91.5397 C.2         1 DVA       0.0291
     42 CE1        42.8814   52.2342   92.7489 C.2         1 DVA       0.0907
     43 NE2        41.5668   51.9756   92.7889 N.pl3       1 DVA      -0.2752
     44 N          44.2610   54.6814   88.7896 N.am        1 DVA      -0.2620
     45 CA         44.3605   56.0914   89.0479 C.3         1 DVA       0.1390
     46 C          45.7102   56.3308   89.5599 C.2         1 DVA       0.2058
     47 O          46.5780   56.8071   88.8434 O.2         1 DVA      -0.3942
     48 CB         43.9565   56.9568   87.7918 C.3         1 DVA       0.0163
     49 CG         42.6994   57.7359   87.9613 C.ar        1 DVA      -0.0493
     50 CD1        42.5308   58.5546   89.1044 C.ar        1 DVA      -0.0685
     51 CD2        41.6792   57.7483   86.9719 C.ar        1 DVA      -0.0685
     52 CE1        41.3790   59.3351   89.2701 C.ar        1 DVA      -0.0398
     53 CE2        40.5247   58.5246   87.1377 C.ar        1 DVA      -0.0398
     54 CZ         40.3653   59.3204   88.2939 C.ar        1 DVA       0.0805
     55 OH         39.2732   60.0961   88.4809 O.3         1 DVA      -0.3376
     56 N          45.9854   56.0064   90.8184 N.am        1 DVA      -0.2620
     57 CA         47.1704   56.3323   91.5761 C.3         1 DVA       0.1423
     58 C          46.8911   57.3722   92.5623 C.2         1 DVA       0.2051
     59 O          45.7351   57.6802   92.8240 O.2         1 DVA      -0.3943
     60 CB         47.7763   55.0459   92.2117 C.3         1 DVA       0.0406
     61 CG         46.8885   54.3459   93.1577 C.2         1 DVA       0.0393
     62 OD1        46.7523   54.8105   94.4187 O.co2       1 DVA      -0.5688
     63 OD2        45.9271   53.5197   92.6824 O.co2       1 DVA      -0.5688
     64 N          47.9072   58.0072   93.1393 N.am        1 DVA      -0.2671
     65 CA         47.8595   59.0592   94.1155 C.3         1 DVA       0.1173
     66 C          47.1610   60.2659   93.6080 C.2         1 DVA       0.0623
     67 O          46.0115   60.7293   94.1563 O.co2       1 DVA      -0.5665
     68 OXT        47.6516   60.9206   92.5307 O.co2       1 DVA      -0.5665
     69 CB         47.3600   58.5457   95.4951 C.3         1 DVA       0.0789
     70 OG         45.9727   58.2293   95.5016 O.3         1 DVA      -0.3910
     71 H1         51.7009   48.7010   77.6189 H           1 DVA       0.2015
     72 H2         51.0268   48.5573   79.1165 H           1 DVA       0.2015
     73 H3         52.6575   48.3089   78.9065 H           1 DVA       0.2015
     74 H4         51.1677   50.7841   78.6167 H           1 DVA       0.1101
     75 H5         53.4613   51.8954   78.3429 H           1 DVA       0.0376
     76 H6         55.3724   50.5778   77.5390 H           1 DVA       0.0236
     77 H7         54.4751   49.0648   77.7594 H           1 DVA       0.0236
     78 H8         54.9230   50.0537   79.1648 H           1 DVA       0.0236
     79 H9         51.9271   51.5973   76.4193 H           1 DVA       0.0236
     80 H10        52.6353   50.0036   76.0858 H           1 DVA       0.0236
     81 H11        53.6212   51.4690   75.9291 H           1 DVA       0.0236
     82 H12        51.8202   53.0598   79.5354 H           1 DVA       0.0802
     83 H13        50.8853   54.6706   81.5722 H           1 DVA       0.0313
     84 H14        52.6083   54.3863   81.2441 H           1 DVA       0.0313
     85 H15        50.8490   53.0086   83.3023 H           1 DVA       0.0287
     86 H16        52.4888   53.6824   83.5183 H           1 DVA       0.0287
     87 H17        53.5027   51.8229   82.4613 H           1 DVA       0.0524
     88 H18        52.0286   51.0033   83.0383 H           1 DVA       0.0524
     89 H19        49.6397   51.1006   81.4700 H           1 DVA       0.1881
     90 H20        47.7407   50.4706   79.9914 H           1 DVA       0.0763
     91 H21        47.2964   52.1778   80.0293 H           1 DVA       0.0763
     92 H22        46.2103   49.5344   81.3511 H           1 DVA       0.1884
     93 H23        46.3764   50.0757   84.1140 H           1 DVA       0.0823
     94 H24        45.2604   48.0804   84.4871 H           1 DVA       0.0606
     95 H25        46.1161   47.7898   82.9679 H           1 DVA       0.0606
     96 H26        44.2509   48.0799   81.8580 H           1 DVA       0.2097
     97 H27        45.3580   51.8764   84.7899 H           1 DVA       0.1883
     98 H28        42.5036   52.0771   84.5951 H           1 DVA       0.0801
     99 H29        44.1356   53.7618   82.9152 H           1 DVA       0.0337
    100 H30        43.7043   54.7966   84.2517 H           1 DVA       0.0337
    101 H31        41.8597   53.4371   82.2676 H           1 DVA       0.0504
    102 H32        42.0786   55.1564   82.5727 H           1 DVA       0.0504
    103 H33        39.2084   53.3631   84.5454 H           1 DVA       0.1814
    104 H34        39.9651   52.6236   83.2491 H           1 DVA       0.1814
    105 H35        42.3338   51.7222   86.7809 H           1 DVA       0.1885
    106 H36        44.2590   52.1407   88.6250 H           1 DVA       0.0817
    107 H37        42.5664   50.5588   89.0907 H           1 DVA       0.0420
    108 H38        41.2658   51.7318   88.8644 H           1 DVA       0.0420
    109 H39        40.2119   51.4759   91.2545 H           1 DVA       0.0729
    110 H40        43.4559   52.4667   93.5656 H           1 DVA       0.1199
    111 H41        41.0054   51.9726   93.5814 H           1 DVA       0.2361
    112 H42        45.0783   54.2304   88.5196 H           1 DVA       0.1885
    113 H43        43.6775   56.3188   89.8726 H           1 DVA       0.0821
    114 H44        43.8903   56.3070   86.9147 H           1 DVA       0.0453
    115 H45        44.7250   57.6985   87.5579 H           1 DVA       0.0453
    116 H46        43.2599   58.5917   89.8248 H           1 DVA       0.0530
    117 H47        41.7811   57.1828   86.1238 H           1 DVA       0.0530
    118 H48        41.2745   59.9150   90.1055 H           1 DVA       0.0525
    119 H49        39.7965   58.5199   86.4171 H           1 DVA       0.0525
    120 H50        38.5026   59.5987   88.1472 H           1 DVA       0.2458
    121 H51        45.2817   55.5605   91.3146 H           1 DVA       0.1884
    122 H52        47.9377   56.7363   90.9049 H           1 DVA       0.0819
    123 H53        48.7061   55.2932   92.7297 H           1 DVA       0.0478
    124 H54        48.0392   54.3492   91.4116 H           1 DVA       0.0478
    125 H55        48.7956   57.7401   92.8520 H           1 DVA       0.1876
    126 H56        48.8961   59.3699   94.2740 H           1 DVA       0.0749
    127 H57        47.5395   59.3029   96.2585 H           1 DVA       0.0599
    128 H58        47.9161   57.6503   95.7713 H           1 DVA       0.0599
    129 H59        45.7856   57.9157   96.4150 H           1 DVA       0.2096
@<TRIPOS>BOND
     1     1     2   1
     2     2     3   1
     3     2     6   1
     4     3     4   1
     5     3     5   1
     6     6     7   2
     7     6     8  am
     8     8     9   1
     9     8    12   1
    10     9    10   1
    11     9    13   1
    12    10    11   1
    13    11    12   1
    14    13    14   2
    15    13    15  am
    16    15    16   1
    17    16    17   1
    18    17    18   2
    19    17    19  am
    20    19    20   1
    21    20    21   1
    22    20    23   1
    23    21    22   2
    24    21    25  am
    25    23    24   1
    26    25    26   1
    27    26    27   1
    28    26    29   1
    29    27    28   2
    30    27    34  am
    31    29    30   1
    32    30    31   1
    33    31    32   2
    34    31    33  am
    35    34    35   1
    36    35    36   1
    37    35    38   1
    38    36    37   2
    39    36    44  am
    40    38    39   1
    41    39    40   1
    42    39    41   2
    43    40    42   2
    44    41    43   1
    45    42    43   1
    46    44    45   1
    47    45    46   1
    48    45    48   1
    49    46    47   2
    50    46    56  am
    51    48    49   1
    52    49    50  ar
    53    49    51  ar
    54    50    52  ar
    55    51    53  ar
    56    52    54  ar
    57    53    54  ar
    58    54    55   1
    59    56    57   1
    60    57    58   1
    61    57    60   1
    62    58    59   2
    63    58    64  am
    64    60    61   1
    65    61    62  ar
    66    61    63  ar
    67    64    65   1
    68    65    66   1
    69    65    69   1
    70    66    67  ar
    71    66    68  ar
    72    69    70   1
    73     1    71   1
    74     1    72   1
    75     1    73   1
    76     2    74   1
    77     3    75   1
    78     4    76   1
    79     4    77   1
    80     4    78   1
    81     5    79   1
    82     5    80   1
    83     5    81   1
    84     9    82   1
    85    10    83   1
    86    10    84   1
    87    11    85   1
    88    11    86   1
    89    12    87   1
    90    12    88   1
    91    15    89   1
    92    16    90   1
    93    16    91   1
    94    19    92   1
    95    20    93   1
    96    23    94   1
    97    23    95   1
    98    24    96   1
    99    25    97   1
   100    26    98   1
   101    29    99   1
   102    29   100   1
   103    30   101   1
   104    30   102   1
   105    33   103   1
   106    33   104   1
   107    34   105   1
   108    35   106   1
   109    38   107   1
   110    38   108   1
   111    41   109   1
   112    42   110   1
   113    43   111   1
   114    44   112   1
   115    45   113   1
   116    48   114   1
   117    48   115   1
   118    50   116   1
   119    51   117   1
   120    52   118   1
   121    53   119   1
   122    55   120   1
   123    56   121   1
   124    57   122   1
   125    60   123   1
   126    60   124   1
   127    64   125   1
   128    65   126   1
   129    69   127   1
   130    69   128   1
   131    70   129   1
@<TRIPOS>SUBSTRUCTURE
     1  DVA      2

