@<TRIPOS>MOLECULE
1zea_ligand_010
   129   131
SMALL
GAST_HUCK
****
This file was generated by PARSER (from files_GN.cpp)

@<TRIPOS>ATOM
      1 N          43.8937   59.6263   95.3671 N.4         1 DVA       0.2381
      2 CA         42.9345   60.7294   95.1941 C.3         1 DVA       0.0675
      3 CB         43.4834   62.0866   95.7762 C.3         1 DVA       0.0139
      4 CG1        44.6049   62.6836   94.8811 C.3         1 DVA      -0.0553
      5 CG2        42.3613   63.1400   95.9776 C.3         1 DVA      -0.0553
      6 C          41.6522   60.3086   95.7736 C.2         1 DVA       0.2295
      7 O          41.7190   59.8808   96.9181 O.2         1 DVA      -0.3905
      8 N          40.4444   60.4003   95.1802 N.am        1 DVA      -0.2471
      9 CA         40.1848   60.8355   93.8276 C.3         1 DVA       0.1339
     10 CB         38.6388   60.8466   93.6737 C.3         1 DVA      -0.0104
     11 CG         38.1295   60.8962   95.1173 C.3         1 DVA      -0.0281
     12 CD         39.2198   60.1436   95.8944 C.3         1 DVA       0.0371
     13 C          40.8272   60.0110   92.8036 C.2         1 DVA       0.2039
     14 O          40.4518   58.8467   92.6605 O.2         1 DVA      -0.3944
     15 N          41.7995   60.5154   92.0649 N.am        1 DVA      -0.2664
     16 CA         42.6227   59.8019   91.1355 C.3         1 DVA       0.1201
     17 C          41.8592   58.9245   90.2669 C.2         1 DVA       0.2008
     18 O          41.8069   57.7368   90.5463 O.2         1 DVA      -0.3947
     19 N          41.1968   59.4465   89.2412 N.am        1 DVA      -0.2618
     20 CA         40.2870   58.7980   88.3293 C.3         1 DVA       0.1539
     21 C          41.0027   58.0163   87.3167 C.2         1 DVA       0.2062
     22 O          40.8944   58.3307   86.1315 O.2         1 DVA      -0.3943
     23 CB         39.1204   58.0106   89.0244 C.3         1 DVA       0.0843
     24 OG         39.2277   57.9682   90.4534 O.3         1 DVA      -0.3903
     25 N          41.7236   56.9577   87.6685 N.am        1 DVA      -0.2635
     26 CA         42.5583   56.1311   86.8528 C.3         1 DVA       0.1330
     27 C          43.9437   56.4612   87.1434 C.2         1 DVA       0.2041
     28 O          44.5203   55.9389   88.0981 O.2         1 DVA      -0.3944
     29 CB         42.2065   54.6154   87.0123 C.3         1 DVA       0.0045
     30 CG         41.9038   54.0804   88.4477 C.3         1 DVA       0.0412
     31 CD         40.5932   54.3985   88.9922 C.2         1 DVA       0.1737
     32 OE1        39.6542   54.6721   88.2451 O.2         1 DVA      -0.3973
     33 NE2        40.3470   54.3834   90.2809 N.am        1 DVA      -0.3009
     34 N          44.5873   57.3366   86.3825 N.am        1 DVA      -0.2625
     35 CA         46.0074   57.5731   86.3618 C.3         1 DVA       0.1369
     36 C          46.7248   56.4887   85.6826 C.2         1 DVA       0.2055
     37 O          47.8096   56.1400   86.1289 O.2         1 DVA      -0.3942
     38 CB         46.3358   58.9682   85.7554 C.3         1 DVA       0.0145
     39 CG         45.9298   59.1615   84.3494 C.2         1 DVA      -0.0027
     40 ND1        44.8335   59.8339   83.9454 N.2         1 DVA      -0.3252
     41 CD2        46.6059   58.7466   83.2032 C.2         1 DVA       0.0291
     42 CE1        44.8323   59.8333   82.6054 C.2         1 DVA       0.0907
     43 NE2        45.9084   59.1674   82.1490 N.pl3       1 DVA      -0.2752
     44 N          46.1866   55.8806   84.6323 N.am        1 DVA      -0.2620
     45 CA         46.7037   54.7592   83.8983 C.3         1 DVA       0.1390
     46 C          46.2762   53.5046   84.5227 C.2         1 DVA       0.2058
     47 O          45.6699   52.6666   83.8606 O.2         1 DVA      -0.3942
     48 CB         46.3588   54.9132   82.3734 C.3         1 DVA       0.0163
     49 CG         44.9711   54.6586   81.8645 C.ar        1 DVA      -0.0493
     50 CD1        43.8158   54.6148   82.6879 C.ar        1 DVA      -0.0685
     51 CD2        44.8014   54.3877   80.4785 C.ar        1 DVA      -0.0685
     52 CE1        42.5585   54.2527   82.1670 C.ar        1 DVA      -0.0398
     53 CE2        43.5414   54.0273   79.9581 C.ar        1 DVA      -0.0398
     54 CZ         42.4237   53.9464   80.8045 C.ar        1 DVA       0.0805
     55 OH         41.2167   53.5951   80.2837 O.3         1 DVA      -0.3376
     56 N          46.5590   53.2491   85.7914 N.am        1 DVA      -0.2620
     57 CA         46.0436   52.1459   86.5642 C.3         1 DVA       0.1423
     58 C          46.4116   50.8677   85.9533 C.2         1 DVA       0.2051
     59 O          47.5552   50.4445   86.0653 O.2         1 DVA      -0.3943
     60 CB         46.4957   52.2705   88.0511 C.3         1 DVA       0.0406
     61 CG         45.8969   51.2539   88.9265 C.2         1 DVA       0.0393
     62 OD1        44.5610   51.2238   89.1431 O.co2       1 DVA      -0.5688
     63 OD2        46.6623   50.2949   89.5017 O.co2       1 DVA      -0.5688
     64 N          45.5268   50.2432   85.1863 N.am        1 DVA      -0.2671
     65 CA         45.7022   49.0503   84.4053 C.3         1 DVA       0.1173
     66 C          44.4311   48.7564   83.7210 C.2         1 DVA       0.0623
     67 O          43.8364   49.6741   82.9196 O.co2       1 DVA      -0.5665
     68 OXT        43.9544   47.4806   83.6683 O.co2       1 DVA      -0.5665
     69 CB         46.8702   49.1301   83.3743 C.3         1 DVA       0.0789
     70 OG         46.9673   50.4119   82.7539 O.3         1 DVA      -0.3910
     71 H1         44.7604   59.8386   94.8652 H           1 DVA       0.2015
     72 H2         43.4984   58.7574   94.9873 H           1 DVA       0.2015
     73 H3         44.0982   59.4980   96.3609 H           1 DVA       0.2015
     74 H4         42.8448   60.8787   94.1186 H           1 DVA       0.1101
     75 H5         43.9246   61.8758   96.7553 H           1 DVA       0.0376
     76 H6         44.2211   62.9122   93.8841 H           1 DVA       0.0236
     77 H7         45.4405   61.9915   94.7831 H           1 DVA       0.0236
     78 H8         44.9898   63.6057   95.3226 H           1 DVA       0.0236
     79 H9         41.8250   63.3238   95.0425 H           1 DVA       0.0236
     80 H10        42.7830   64.0879   96.3280 H           1 DVA       0.0236
     81 H11        41.6438   62.8031   96.7294 H           1 DVA       0.0236
     82 H12        40.5272   61.8779   93.7488 H           1 DVA       0.0802
     83 H13        38.2612   59.9328   93.1987 H           1 DVA       0.0313
     84 H14        38.2885   61.7130   93.1009 H           1 DVA       0.0313
     85 H15        37.1513   60.4252   95.2210 H           1 DVA       0.0287
     86 H16        38.0775   61.9325   95.4646 H           1 DVA       0.0287
     87 H17        39.2493   60.5178   96.9229 H           1 DVA       0.0524
     88 H18        39.0182   59.0662   95.9066 H           1 DVA       0.0524
     89 H19        42.0296   61.4435   92.2122 H           1 DVA       0.1881
     90 H20        43.3741   59.2365   91.7016 H           1 DVA       0.0763
     91 H21        43.1617   60.5278   90.5206 H           1 DVA       0.0763
     92 H22        41.3193   60.3997   89.0987 H           1 DVA       0.1884
     93 H23        39.8148   59.6448   87.8167 H           1 DVA       0.0823
     94 H24        39.0931   56.9730   88.6849 H           1 DVA       0.0606
     95 H25        38.1581   58.4647   88.7512 H           1 DVA       0.0606
     96 H26        38.8491   58.8241   90.7554 H           1 DVA       0.2097
     97 H27        41.7304   56.7540   88.6158 H           1 DVA       0.1883
     98 H28        42.3767   56.3635   85.8003 H           1 DVA       0.0801
     99 H29        43.0400   54.0340   86.6081 H           1 DVA       0.0337
    100 H30        41.3495   54.3924   86.3719 H           1 DVA       0.0337
    101 H31        42.6761   54.4314   89.1391 H           1 DVA       0.0504
    102 H32        41.9738   52.9871   88.4261 H           1 DVA       0.0504
    103 H33        39.4594   54.6070   90.6153 H           1 DVA       0.1814
    104 H34        41.0555   54.1534   90.9084 H           1 DVA       0.1814
    105 H35        44.0649   57.7677   85.6807 H           1 DVA       0.1885
    106 H36        46.3468   57.6213   87.4027 H           1 DVA       0.0817
    107 H37        47.4092   59.1631   85.8409 H           1 DVA       0.0420
    108 H38        45.8325   59.7260   86.3608 H           1 DVA       0.0420
    109 H39        47.4886   58.2243   83.1713 H           1 DVA       0.0729
    110 H40        44.1211   60.2689   82.0183 H           1 DVA       0.1199
    111 H41        46.1405   59.0344   81.2179 H           1 DVA       0.2361
    112 H42        45.3241   56.2170   84.3392 H           1 DVA       0.1885
    113 H43        47.7983   54.7712   83.9508 H           1 DVA       0.0821
    114 H44        47.0281   54.2241   81.8493 H           1 DVA       0.0453
    115 H45        46.6439   55.9187   82.0470 H           1 DVA       0.0453
    116 H46        43.8772   54.8164   83.6857 H           1 DVA       0.0530
    117 H47        45.5976   54.4135   79.8449 H           1 DVA       0.0530
    118 H48        41.7474   54.2136   82.7883 H           1 DVA       0.0525
    119 H49        43.4473   53.8092   78.9609 H           1 DVA       0.0525
    120 H50        40.9223   52.8199   80.8171 H           1 DVA       0.2458
    121 H51        47.0818   53.9159   86.2703 H           1 DVA       0.1884
    122 H52        44.9534   52.2460   86.5678 H           1 DVA       0.0819
    123 H53        46.2058   53.2523   88.4299 H           1 DVA       0.0478
    124 H54        47.5899   52.2130   88.1073 H           1 DVA       0.0478
    125 H55        44.6491   50.6576   85.1238 H           1 DVA       0.1876
    126 H56        45.9167   48.2325   85.0969 H           1 DVA       0.0749
    127 H57        46.7286   48.3829   82.5898 H           1 DVA       0.0599
    128 H58        47.8186   48.9092   83.8687 H           1 DVA       0.0599
    129 H59        47.3786   50.9869   83.4351 H           1 DVA       0.2096
@<TRIPOS>BOND
     1     1     2   1
     2     2     3   1
     3     2     6   1
     4     3     4   1
     5     3     5   1
     6     6     7   2
     7     6     8  am
     8     8     9   1
     9     8    12   1
    10     9    10   1
    11     9    13   1
    12    10    11   1
    13    11    12   1
    14    13    14   2
    15    13    15  am
    16    15    16   1
    17    16    17   1
    18    17    18   2
    19    17    19  am
    20    19    20   1
    21    20    21   1
    22    20    23   1
    23    21    22   2
    24    21    25  am
    25    23    24   1
    26    25    26   1
    27    26    27   1
    28    26    29   1
    29    27    28   2
    30    27    34  am
    31    29    30   1
    32    30    31   1
    33    31    32   2
    34    31    33  am
    35    34    35   1
    36    35    36   1
    37    35    38   1
    38    36    37   2
    39    36    44  am
    40    38    39   1
    41    39    40   1
    42    39    41   2
    43    40    42   2
    44    41    43   1
    45    42    43   1
    46    44    45   1
    47    45    46   1
    48    45    48   1
    49    46    47   2
    50    46    56  am
    51    48    49   1
    52    49    50  ar
    53    49    51  ar
    54    50    52  ar
    55    51    53  ar
    56    52    54  ar
    57    53    54  ar
    58    54    55   1
    59    56    57   1
    60    57    58   1
    61    57    60   1
    62    58    59   2
    63    58    64  am
    64    60    61   1
    65    61    62  ar
    66    61    63  ar
    67    64    65   1
    68    65    66   1
    69    65    69   1
    70    66    67  ar
    71    66    68  ar
    72    69    70   1
    73     1    71   1
    74     1    72   1
    75     1    73   1
    76     2    74   1
    77     3    75   1
    78     4    76   1
    79     4    77   1
    80     4    78   1
    81     5    79   1
    82     5    80   1
    83     5    81   1
    84     9    82   1
    85    10    83   1
    86    10    84   1
    87    11    85   1
    88    11    86   1
    89    12    87   1
    90    12    88   1
    91    15    89   1
    92    16    90   1
    93    16    91   1
    94    19    92   1
    95    20    93   1
    96    23    94   1
    97    23    95   1
    98    24    96   1
    99    25    97   1
   100    26    98   1
   101    29    99   1
   102    29   100   1
   103    30   101   1
   104    30   102   1
   105    33   103   1
   106    33   104   1
   107    34   105   1
   108    35   106   1
   109    38   107   1
   110    38   108   1
   111    41   109   1
   112    42   110   1
   113    43   111   1
   114    44   112   1
   115    45   113   1
   116    48   114   1
   117    48   115   1
   118    50   116   1
   119    51   117   1
   120    52   118   1
   121    53   119   1
   122    55   120   1
   123    56   121   1
   124    57   122   1
   125    60   123   1
   126    60   124   1
   127    64   125   1
   128    65   126   1
   129    69   127   1
   130    69   128   1
   131    70   129   1
@<TRIPOS>SUBSTRUCTURE
     1  DVA      2

