@<TRIPOS>MOLECULE
2brb_ligand_027
    42    45
SMALL
GAST_HUCK
****
This file was generated by PARSER (from files_GN.cpp)

@<TRIPOS>ATOM
      1 C2         17.8987   -0.2365    8.6338 C.ar        1 PFQ       0.0554
      2 C10        17.7414   -3.6423   11.5737 C.2         1 PFQ       0.1438
      3 C11        17.9461   -4.8662   12.2595 C.ar        1 PFQ       0.0192
      4 C12        17.5938   -5.0340   13.6204 C.ar        1 PFQ      -0.0510
      5 C13        17.7571   -6.2756   14.2596 C.ar        1 PFQ      -0.0615
      6 C14        18.2812   -7.3700   13.5513 C.ar        1 PFQ      -0.0622
      7 C15        18.6510   -7.2163   12.2029 C.ar        1 PFQ      -0.0615
      8 C16        18.4943   -5.9703   11.5649 C.ar        1 PFQ      -0.0510
      9 C19        14.3754   -3.8548   11.6411 C.ar        1 PFQ      -0.0609
     10 C20        13.1357   -4.0298   12.2861 C.ar        1 PFQ      -0.0660
     11 C21        12.8986   -3.4184   13.5311 C.ar        1 PFQ      -0.0660
     12 C22        13.8962   -2.6250   14.1289 C.ar        1 PFQ      -0.0660
     13 N1         18.6430   -1.2485    9.1598 N.ar        1 PFQ      -0.2620
     14 C6         18.1004   -2.0513   10.1055 C.ar        1 PFQ       0.2013
     15 O6         18.6438   -3.1375   10.6923 O.3         1 PFQ      -0.2284
     16 C5         16.7996   -1.8590   10.5762 C.ar        1 PFQ       0.0757
     17 N9         14.6989   -0.7149   10.2810 N.pl3       1 PFQ      -0.2984
     18 C4         16.0115   -0.8459    9.9751 C.ar        1 PFQ       0.1260
     19 N3         16.6091   -0.0641    9.0239 N.ar        1 PFQ      -0.2686
     20 C17        15.1300   -2.4340   13.4797 C.ar        1 PFQ      -0.0609
     21 C1         16.5887   -2.8367   11.5444 C.2         1 PFQ       0.0223
     22 C18        15.3771   -3.0555   12.2322 C.ar        1 PFQ      -0.0309
     23 C23        12.7614    0.7655   10.2625 C.3         1 PFQ       0.0648
     24 C8         13.6718   -0.1745    9.4479 C.3         1 PFQ       0.0533
     25 O24        13.5449    1.7155   10.9861 O.3         1 PFQ      -0.3930
     26 H1         18.2919    0.3748    7.9194 H           1 PFQ       0.1000
     27 H2         17.2397   -4.2453   14.1667 H           1 PFQ       0.0623
     28 H3         17.5018   -6.3815   15.2436 H           1 PFQ       0.0616
     29 H4         18.3921   -8.2750   14.0128 H           1 PFQ       0.0614
     30 H5         19.0275   -8.0148   11.6836 H           1 PFQ       0.0616
     31 H6         18.7504   -5.8882   10.5791 H           1 PFQ       0.0623
     32 H7         14.5347   -4.2960   10.7320 H           1 PFQ       0.0583
     33 H8         12.4099   -4.5952   11.8459 H           1 PFQ       0.0606
     34 H9         12.0002   -3.5474   13.9985 H           1 PFQ       0.0581
     35 H10        13.7177   -2.1844   15.0361 H           1 PFQ       0.0606
     36 H11        14.3972   -1.1159   11.1088 H           1 PFQ       0.1865
     37 H12        15.8442   -1.8514   13.9230 H           1 PFQ       0.0583
     38 H13        12.1610    0.1820   10.9648 H           1 PFQ       0.0578
     39 H14        12.0893    1.3048    9.5884 H           1 PFQ       0.0578
     40 H15        13.0682   -1.0130    9.0781 H           1 PFQ       0.0549
     41 H16        14.0673    0.3599    8.5845 H           1 PFQ       0.0549
     42 H17        13.8102    2.3766   10.3095 H           1 PFQ       0.2095
@<TRIPOS>BOND
     1    13     1  ar
     2    19     1  ar
     3     2     3   1
     4     2    15   1
     5    21     2   2
     6     3     4  ar
     7     3     8  ar
     8     4     5  ar
     9     5     6  ar
    10     7     6  ar
    11     8     7  ar
    12     9    10  ar
    13    22     9  ar
    14    10    11  ar
    15    12    11  ar
    16    20    12  ar
    17    14    13  ar
    18    14    15   1
    19    16    14  ar
    20    16    18  ar
    21    21    16   1
    22    18    17   1
    23    17    24   1
    24    18    19  ar
    25    22    20  ar
    26    21    22   1
    27    24    23   1
    28    23    25   1
    29     1    26   1
    30     4    27   1
    31     5    28   1
    32     6    29   1
    33     7    30   1
    34     8    31   1
    35     9    32   1
    36    10    33   1
    37    11    34   1
    38    12    35   1
    39    17    36   1
    40    20    37   1
    41    23    38   1
    42    23    39   1
    43    24    40   1
    44    24    41   1
    45    25    42   1
@<TRIPOS>SUBSTRUCTURE
     1  PFQ      1

