@<TRIPOS>MOLECULE
2brb_ligand_016
    42    45
SMALL
GAST_HUCK
****
This file was generated by PARSER (from files_GN.cpp)

@<TRIPOS>ATOM
      1 C2         22.7924   -4.0486   12.3080 C.ar        1 PFQ       0.0554
      2 C10        18.8432   -6.1329   11.7269 C.2         1 PFQ       0.1438
      3 C11        17.8596   -7.1725   11.8136 C.ar        1 PFQ       0.0192
      4 C12        16.5371   -7.0553   11.3109 C.ar        1 PFQ      -0.0510
      5 C13        15.5844   -8.0770   11.4780 C.ar        1 PFQ      -0.0615
      6 C14        15.9313   -9.2529   12.1566 C.ar        1 PFQ      -0.0622
      7 C15        17.2344   -9.4108   12.6493 C.ar        1 PFQ      -0.0615
      8 C16        18.1827   -8.3854   12.4767 C.ar        1 PFQ      -0.0510
      9 C19        16.6802   -3.8356   10.7250 C.ar        1 PFQ      -0.0609
     10 C20        15.5034   -3.0760   10.8597 C.ar        1 PFQ      -0.0660
     11 C21        15.2371   -2.4048   12.0670 C.ar        1 PFQ      -0.0660
     12 C22        16.1494   -2.4866   13.1343 C.ar        1 PFQ      -0.0660
     13 N1         22.2211   -5.2650   12.1540 N.ar        1 PFQ      -0.2620
     14 C6         20.8910   -5.3497   11.8977 C.ar        1 PFQ       0.2013
     15 O6         20.1543   -6.4659   11.8485 O.3         1 PFQ      -0.2284
     16 C5         20.0725   -4.2271   11.7879 C.ar        1 PFQ       0.0757
     17 N9         20.1635   -1.7286   11.7585 N.pl3       1 PFQ      -0.2984
     18 C4         20.7041   -2.9627   11.9048 C.ar        1 PFQ       0.1260
     19 N3         22.0336   -2.9293   12.2108 N.ar        1 PFQ      -0.2686
     20 C17        17.3306   -3.2422   12.9945 C.ar        1 PFQ      -0.0609
     21 C1         18.7620   -4.7215   11.6806 C.2         1 PFQ       0.0223
     22 C18        17.6006   -3.9323   11.7915 C.ar        1 PFQ      -0.0309
     23 C23        18.4939   -0.2587   10.7471 C.3         1 PFQ       0.0648
     24 C8         19.7143   -1.1674   10.5235 C.3         1 PFQ       0.0533
     25 O24        18.8472    0.9437   11.4301 O.3         1 PFQ      -0.3930
     26 H1         23.7898   -3.9778   12.4971 H           1 PFQ       0.1000
     27 H2         16.2232   -6.2313   10.8119 H           1 PFQ       0.0623
     28 H3         14.6331   -7.9665   11.1090 H           1 PFQ       0.0616
     29 H4         15.2393   -9.9866   12.2942 H           1 PFQ       0.0614
     30 H5         17.4948  -10.2708   13.1369 H           1 PFQ       0.0616
     31 H6         19.1122   -8.5387   12.8642 H           1 PFQ       0.0623
     32 H7         16.8627   -4.3259    9.8433 H           1 PFQ       0.0583
     33 H8         14.8428   -3.0153   10.0829 H           1 PFQ       0.0606
     34 H9         14.3780   -1.8602   12.1660 H           1 PFQ       0.0581
     35 H10        15.9479   -1.9983   14.0103 H           1 PFQ       0.0606
     36 H11        20.4792   -1.0681   12.3906 H           1 PFQ       0.1865
     37 H12        17.9752   -3.3005   13.7912 H           1 PFQ       0.0583
     38 H13        17.7461   -0.7906   11.3318 H           1 PFQ       0.0578
     39 H14        18.0517    0.0069    9.7826 H           1 PFQ       0.0578
     40 H15        19.4848   -1.9226    9.7781 H           1 PFQ       0.0549
     41 H16        20.5274   -0.5533   10.1239 H           1 PFQ       0.0549
     42 H17        19.2071    1.5195   10.7237 H           1 PFQ       0.2095
@<TRIPOS>BOND
     1    13     1  ar
     2    19     1  ar
     3     2     3   1
     4     2    15   1
     5    21     2   2
     6     3     4  ar
     7     3     8  ar
     8     4     5  ar
     9     5     6  ar
    10     7     6  ar
    11     8     7  ar
    12     9    10  ar
    13    22     9  ar
    14    10    11  ar
    15    12    11  ar
    16    20    12  ar
    17    14    13  ar
    18    14    15   1
    19    16    14  ar
    20    16    18  ar
    21    21    16   1
    22    18    17   1
    23    17    24   1
    24    18    19  ar
    25    22    20  ar
    26    21    22   1
    27    24    23   1
    28    23    25   1
    29     1    26   1
    30     4    27   1
    31     5    28   1
    32     6    29   1
    33     7    30   1
    34     8    31   1
    35     9    32   1
    36    10    33   1
    37    11    34   1
    38    12    35   1
    39    17    36   1
    40    20    37   1
    41    23    38   1
    42    23    39   1
    43    24    40   1
    44    24    41   1
    45    25    42   1
@<TRIPOS>SUBSTRUCTURE
     1  PFQ      1

