@<TRIPOS>MOLECULE
2brb_ligand_036
    42    45
SMALL
GAST_HUCK
****
This file was generated by PARSER (from files_GN.cpp)

@<TRIPOS>ATOM
      1 C2         13.6097  -10.4262   16.4360 C.ar        1 PFQ       0.0554
      2 C10        17.8526   -9.0255   16.7620 C.2         1 PFQ       0.1438
      3 C11        19.0987   -8.5535   17.2137 C.ar        1 PFQ       0.0192
      4 C12        19.9946   -9.4115   17.8815 C.ar        1 PFQ      -0.0510
      5 C13        21.2146   -8.9212   18.3917 C.ar        1 PFQ      -0.0615
      6 C14        21.5221   -7.5534   18.2730 C.ar        1 PFQ      -0.0622
      7 C15        20.6207   -6.6873   17.6218 C.ar        1 PFQ      -0.0615
      8 C16        19.4109   -7.1860   17.1046 C.ar        1 PFQ      -0.0510
      9 C19        18.4383   -9.6215   13.3934 C.ar        1 PFQ      -0.0609
     10 C20        19.1201   -9.2802   12.2090 C.ar        1 PFQ      -0.0660
     11 C21        19.3454   -7.9305   11.8970 C.ar        1 PFQ      -0.0660
     12 C22        18.8800   -6.9174   12.7544 C.ar        1 PFQ      -0.0660
     13 N1         14.6428  -10.3120   17.3072 N.ar        1 PFQ      -0.2620
     14 C6         15.8219   -9.8110   16.8782 C.ar        1 PFQ       0.2013
     15 O6         16.9403   -9.5602   17.6042 O.3         1 PFQ      -0.2284
     16 C5         16.0178   -9.4154   15.5548 C.ar        1 PFQ       0.0757
     17 N9         15.0163   -8.9935   13.3904 N.pl3       1 PFQ      -0.2984
     18 C4         14.9333   -9.4840   14.6529 C.ar        1 PFQ       0.1260
     19 N3         13.7630   -9.9921   15.1455 N.ar        1 PFQ      -0.2686
     20 C17        18.2041   -7.2534   13.9450 C.ar        1 PFQ      -0.0609
     21 C1         17.3316   -8.9579   15.4658 C.2         1 PFQ       0.0223
     22 C18        18.0135   -8.6101   14.2881 C.ar        1 PFQ      -0.0309
     23 C23        13.5132   -9.1031   11.3917 C.3         1 PFQ       0.0648
     24 C8         13.9450   -8.3577   12.6774 C.3         1 PFQ       0.0533
     25 O24        13.1861  -10.4509   11.6983 O.3         1 PFQ      -0.3930
     26 H1         12.7090  -10.8072   16.7560 H           1 PFQ       0.1000
     27 H2         19.7592  -10.4026   18.0059 H           1 PFQ       0.0623
     28 H3         21.8652   -9.5406   18.8773 H           1 PFQ       0.0616
     29 H4         22.3990   -7.1889   18.6423 H           1 PFQ       0.0614
     30 H5         20.8236   -5.6846   17.5776 H           1 PFQ       0.0616
     31 H6         18.7461   -6.5328   16.6849 H           1 PFQ       0.0623
     32 H7         18.2569  -10.6041   13.5947 H           1 PFQ       0.0583
     33 H8         19.4332  -10.0135   11.5736 H           1 PFQ       0.0606
     34 H9         19.8610   -7.6820   11.0510 H           1 PFQ       0.0581
     35 H10        19.0136   -5.9405   12.5078 H           1 PFQ       0.0606
     36 H11        15.9037   -8.8614   13.0181 H           1 PFQ       0.1865
     37 H12        17.8432   -6.5126   14.5447 H           1 PFQ       0.0583
     38 H13        14.3049   -9.0813   10.6391 H           1 PFQ       0.0578
     39 H14        12.6154   -8.6374   10.9701 H           1 PFQ       0.0578
     40 H15        14.2885   -7.3596   12.4103 H           1 PFQ       0.0549
     41 H16        13.0588   -8.2130   13.3007 H           1 PFQ       0.0549
     42 H17        12.3332  -10.3937   12.1749 H           1 PFQ       0.2095
@<TRIPOS>BOND
     1    13     1  ar
     2    19     1  ar
     3     2     3   1
     4     2    15   1
     5    21     2   2
     6     3     4  ar
     7     3     8  ar
     8     4     5  ar
     9     5     6  ar
    10     7     6  ar
    11     8     7  ar
    12     9    10  ar
    13    22     9  ar
    14    10    11  ar
    15    12    11  ar
    16    20    12  ar
    17    14    13  ar
    18    14    15   1
    19    16    14  ar
    20    16    18  ar
    21    21    16   1
    22    18    17   1
    23    17    24   1
    24    18    19  ar
    25    22    20  ar
    26    21    22   1
    27    24    23   1
    28    23    25   1
    29     1    26   1
    30     4    27   1
    31     5    28   1
    32     6    29   1
    33     7    30   1
    34     8    31   1
    35     9    32   1
    36    10    33   1
    37    11    34   1
    38    12    35   1
    39    17    36   1
    40    20    37   1
    41    23    38   1
    42    23    39   1
    43    24    40   1
    44    24    41   1
    45    25    42   1
@<TRIPOS>SUBSTRUCTURE
     1  PFQ      1

