@<TRIPOS>MOLECULE
2brb_ligand_038
    42    45
SMALL
GAST_HUCK
****
This file was generated by PARSER (from files_GN.cpp)

@<TRIPOS>ATOM
      1 C2         17.0759   -4.6687   10.2520 C.ar        1 PFQ       0.0554
      2 C10        18.3207   -8.3255   12.5446 C.2         1 PFQ       0.1438
      3 C11        19.1366   -9.2978   13.1839 C.ar        1 PFQ       0.0192
      4 C12        18.6202  -10.5303   13.6512 C.ar        1 PFQ      -0.0510
      5 C13        19.4561  -11.4619   14.2991 C.ar        1 PFQ      -0.0615
      6 C14        20.8215  -11.1721   14.4798 C.ar        1 PFQ      -0.0622
      7 C15        21.3545   -9.9648   13.9992 C.ar        1 PFQ      -0.0615
      8 C16        20.5165   -9.0391   13.3494 C.ar        1 PFQ      -0.0510
      9 C19        15.2916   -9.1951   14.0283 C.ar        1 PFQ      -0.0609
     10 C20        14.6202   -9.5215   15.2249 C.ar        1 PFQ      -0.0660
     11 C21        14.9802   -8.8924   16.4323 C.ar        1 PFQ      -0.0660
     12 C22        16.0363   -7.9663   16.4508 C.ar        1 PFQ      -0.0660
     13 N1         18.0670   -5.5824   10.3912 N.ar        1 PFQ      -0.2620
     14 C6         17.9017   -6.6093   11.2588 C.ar        1 PFQ       0.2013
     15 O6         18.8277   -7.5337   11.5698 O.3         1 PFQ      -0.2284
     16 C5         16.7454   -6.7812   12.0242 C.ar        1 PFQ       0.0757
     17 N9         14.4373   -5.7932   12.3292 N.pl3       1 PFQ      -0.2984
     18 C4         15.6979   -5.8272   11.8326 C.ar        1 PFQ       0.1260
     19 N3         15.9270   -4.8052   10.9615 N.ar        1 PFQ      -0.2686
     20 C17        16.7101   -7.6406   15.2607 C.ar        1 PFQ      -0.0609
     21 C1         17.0194   -7.8824   12.8567 C.2         1 PFQ       0.0223
     22 C18        16.3314   -8.2393   14.0356 C.ar        1 PFQ      -0.0309
     23 C23        12.1893   -6.6391   12.8292 C.3         1 PFQ       0.0648
     24 C8         13.7203   -6.8659   12.9272 C.3         1 PFQ       0.0533
     25 O24        11.5342   -7.8042   12.3220 O.3         1 PFQ      -0.3930
     26 H1         17.1944   -3.8760    9.6199 H           1 PFQ       0.1000
     27 H2         17.6410  -10.7799   13.5007 H           1 PFQ       0.0623
     28 H3         19.0739  -12.3524   14.6293 H           1 PFQ       0.0616
     29 H4         21.4296  -11.8502   14.9497 H           1 PFQ       0.0614
     30 H5         22.3440   -9.7622   14.1187 H           1 PFQ       0.0616
     31 H6         20.9257   -8.1654   13.0156 H           1 PFQ       0.0623
     32 H7         15.0093   -9.6494   13.1609 H           1 PFQ       0.0583
     33 H8         13.8589  -10.2122   15.2173 H           1 PFQ       0.0606
     34 H9         14.4791   -9.1196   17.2973 H           1 PFQ       0.0581
     35 H10        16.3145   -7.5279   17.3316 H           1 PFQ       0.0606
     36 H11        13.8987   -5.0467   12.0144 H           1 PFQ       0.1865
     37 H12        17.4828   -6.9716   15.2958 H           1 PFQ       0.0583
     38 H13        11.9376   -5.8009   12.1644 H           1 PFQ       0.0578
     39 H14        11.7868   -6.4167   13.8201 H           1 PFQ       0.0578
     40 H15        13.9970   -6.9410   13.9728 H           1 PFQ       0.0549
     41 H16        13.9742   -7.7977   12.4118 H           1 PFQ       0.0549
     42 H17        11.7665   -7.8183   11.3659 H           1 PFQ       0.2095
@<TRIPOS>BOND
     1    13     1  ar
     2    19     1  ar
     3     2     3   1
     4     2    15   1
     5    21     2   2
     6     3     4  ar
     7     3     8  ar
     8     4     5  ar
     9     5     6  ar
    10     7     6  ar
    11     8     7  ar
    12     9    10  ar
    13    22     9  ar
    14    10    11  ar
    15    12    11  ar
    16    20    12  ar
    17    14    13  ar
    18    14    15   1
    19    16    14  ar
    20    16    18  ar
    21    21    16   1
    22    18    17   1
    23    17    24   1
    24    18    19  ar
    25    22    20  ar
    26    21    22   1
    27    24    23   1
    28    23    25   1
    29     1    26   1
    30     4    27   1
    31     5    28   1
    32     6    29   1
    33     7    30   1
    34     8    31   1
    35     9    32   1
    36    10    33   1
    37    11    34   1
    38    12    35   1
    39    17    36   1
    40    20    37   1
    41    23    38   1
    42    23    39   1
    43    24    40   1
    44    24    41   1
    45    25    42   1
@<TRIPOS>SUBSTRUCTURE
     1  PFQ      1

