@<TRIPOS>MOLECULE
2brb_ligand_000
    42    45
SMALL
GAST_HUCK
****
This file was generated by PARSER (from files_GN.cpp)

@<TRIPOS>ATOM
      1 C2         12.0708   -5.4680   12.5339 C.ar        1 PFQ       0.0554
      2 C10        14.5044   -6.6210   16.1149 C.2         1 PFQ       0.1438
      3 C11        15.2927   -6.6211   17.2778 C.ar        1 PFQ       0.0192
      4 C12        16.6982   -6.7299   17.1866 C.ar        1 PFQ      -0.0510
      5 C13        17.4860   -6.7223   18.3518 C.ar        1 PFQ      -0.0615
      6 C14        16.8730   -6.6178   19.6142 C.ar        1 PFQ      -0.0622
      7 C15        15.4731   -6.5016   19.7087 C.ar        1 PFQ      -0.0615
      8 C16        14.6844   -6.4931   18.5431 C.ar        1 PFQ      -0.0510
      9 C19        14.5698   -9.8697   16.1873 C.ar        1 PFQ      -0.0609
     10 C20        15.2752  -11.0759   16.3487 C.ar        1 PFQ      -0.0660
     11 C21        16.4329  -11.3229   15.5898 C.ar        1 PFQ      -0.0660
     12 C22        16.8736  -10.3722   14.6514 C.ar        1 PFQ      -0.0660
     13 N1         12.5349   -4.9973   13.7205 N.ar        1 PFQ      -0.2620
     14 C6         13.2658   -5.8190   14.5126 C.ar        1 PFQ       0.2013
     15 O6         13.8252   -5.5246   15.7054 O.3         1 PFQ      -0.2284
     16 C5         13.5678   -7.1353   14.1477 C.ar        1 PFQ       0.0757
     17 N9         13.1494   -8.9306   12.5822 N.pl3       1 PFQ      -0.2984
     18 C4         13.0212   -7.6311   12.9393 C.ar        1 PFQ       0.1260
     19 N3         12.3011   -6.7602   12.1684 N.ar        1 PFQ      -0.2686
     20 C17        16.1625   -9.1716   14.4752 C.ar        1 PFQ      -0.0609
     21 C1         14.3738   -7.6474   15.1683 C.2         1 PFQ       0.0223
     22 C18        15.0077   -8.9087   15.2465 C.ar        1 PFQ      -0.0309
     23 C23        11.0972   -9.2774   11.1225 C.3         1 PFQ       0.0648
     24 C8         12.6086   -9.5336   11.4025 C.3         1 PFQ       0.0533
     25 O24        10.3127  -10.4412   11.3776 O.3         1 PFQ      -0.3930
     26 H1         11.5145   -4.8608   11.9270 H           1 PFQ       0.1000
     27 H2         17.1591   -6.7986   16.2762 H           1 PFQ       0.0623
     28 H3         18.5033   -6.7900   18.2826 H           1 PFQ       0.0616
     29 H4         17.4461   -6.6248   20.4610 H           1 PFQ       0.0614
     30 H5         15.0249   -6.4248   20.6243 H           1 PFQ       0.0616
     31 H6         13.6663   -6.4157   18.6283 H           1 PFQ       0.0623
     32 H7         13.7431   -9.6942   16.7627 H           1 PFQ       0.0583
     33 H8         14.9509  -11.7694   17.0258 H           1 PFQ       0.0606
     34 H9         16.9486  -12.1973   15.7144 H           1 PFQ       0.0581
     35 H10        17.7172  -10.5520   14.1030 H           1 PFQ       0.0606
     36 H11        13.6774   -9.5000   13.1570 H           1 PFQ       0.1865
     37 H12        16.5121   -8.4776   13.8090 H           1 PFQ       0.0583
     38 H13        10.9644   -9.0069   10.0681 H           1 PFQ       0.0578
     39 H14        10.7136   -8.4540   11.7308 H           1 PFQ       0.0578
     40 H15        12.7665  -10.6096   11.4849 H           1 PFQ       0.0549
     41 H16        13.1943   -9.1934   10.5417 H           1 PFQ       0.0549
     42 H17         9.8032  -10.5986   10.5487 H           1 PFQ       0.2095
@<TRIPOS>BOND
     1    13     1  ar
     2    19     1  ar
     3     2     3   1
     4     2    15   1
     5    21     2   2
     6     3     4  ar
     7     3     8  ar
     8     4     5  ar
     9     5     6  ar
    10     7     6  ar
    11     8     7  ar
    12     9    10  ar
    13    22     9  ar
    14    10    11  ar
    15    12    11  ar
    16    20    12  ar
    17    14    13  ar
    18    14    15   1
    19    16    14  ar
    20    16    18  ar
    21    21    16   1
    22    18    17   1
    23    17    24   1
    24    18    19  ar
    25    22    20  ar
    26    21    22   1
    27    24    23   1
    28    23    25   1
    29     1    26   1
    30     4    27   1
    31     5    28   1
    32     6    29   1
    33     7    30   1
    34     8    31   1
    35     9    32   1
    36    10    33   1
    37    11    34   1
    38    12    35   1
    39    17    36   1
    40    20    37   1
    41    23    38   1
    42    23    39   1
    43    24    40   1
    44    24    41   1
    45    25    42   1
@<TRIPOS>SUBSTRUCTURE
     1  PFQ      1

