@<TRIPOS>MOLECULE
2brb_ligand_023
    42    45
SMALL
GAST_HUCK
****
This file was generated by PARSER (from files_GN.cpp)

@<TRIPOS>ATOM
      1 C2         12.5938   -5.1557   12.4234 C.ar        1 PFQ       0.0554
      2 C10        16.8238   -4.1526   11.3451 C.2         1 PFQ       0.1438
      3 C11        17.9615   -3.6102   10.7298 C.ar        1 PFQ       0.0192
      4 C12        18.5646   -4.2712    9.6353 C.ar        1 PFQ      -0.0510
      5 C13        19.6640   -3.6916    8.9856 C.ar        1 PFQ      -0.0615
      6 C14        20.1935   -2.4774    9.4434 C.ar        1 PFQ      -0.0622
      7 C15        19.6010   -1.8245   10.5325 C.ar        1 PFQ      -0.0615
      8 C16        18.4850   -2.3792   11.1789 C.ar        1 PFQ      -0.0510
      9 C19        17.6925   -7.6958   11.8218 C.ar        1 PFQ      -0.0609
     10 C20        18.7112   -8.5912   12.1776 C.ar        1 PFQ      -0.0660
     11 C21        19.8582   -8.1321   12.8568 C.ar        1 PFQ      -0.0660
     12 C22        19.9831   -6.7654   13.1576 C.ar        1 PFQ      -0.0660
     13 N1         13.3675   -4.1609   11.9095 N.ar        1 PFQ      -0.2620
     14 C6         14.7086   -4.3568   11.8289 C.ar        1 PFQ       0.2013
     15 O6         15.6235   -3.5270   11.2973 O.3         1 PFQ      -0.2284
     16 C5         15.3205   -5.5616   12.1979 C.ar        1 PFQ       0.0757
     17 N9         14.9964   -7.7750   13.0181 N.pl3       1 PFQ      -0.2984
     18 C4         14.4745   -6.5780   12.6960 C.ar        1 PFQ       0.1260
     19 N3         13.1371   -6.3504   12.7707 N.ar        1 PFQ      -0.2686
     20 C17        18.9503   -5.8716   12.8361 C.ar        1 PFQ      -0.0609
     21 C1         16.6921   -5.4171   11.9318 C.2         1 PFQ       0.0223
     22 C18        17.7708   -6.3195   12.1899 C.ar        1 PFQ      -0.0309
     23 C23        13.6110   -9.1034   11.3799 C.3         1 PFQ       0.0648
     24 C8         14.5839   -9.0790   12.5513 C.3         1 PFQ       0.0533
     25 O24        13.0839  -10.4224   11.2281 O.3         1 PFQ      -0.3930
     26 H1         11.5802   -5.0145   12.4822 H           1 PFQ       0.1000
     27 H2         18.1741   -5.1581    9.2888 H           1 PFQ       0.0623
     28 H3         20.0780   -4.1643    8.1781 H           1 PFQ       0.0616
     29 H4         20.9931   -2.0569    8.9676 H           1 PFQ       0.0614
     30 H5         19.9894   -0.9376   10.8749 H           1 PFQ       0.0616
     31 H6         18.0583   -1.8933   11.9723 H           1 PFQ       0.0623
     32 H7         16.8767   -8.0463   11.3136 H           1 PFQ       0.0583
     33 H8         18.6297   -9.5747   11.9493 H           1 PFQ       0.0606
     34 H9         20.5903   -8.7820   13.1227 H           1 PFQ       0.0581
     35 H10        20.8206   -6.4232   13.6281 H           1 PFQ       0.0606
     36 H11        15.8361   -7.7781   13.5187 H           1 PFQ       0.1865
     37 H12        19.0391   -4.8899   13.0957 H           1 PFQ       0.0583
     38 H13        14.0951   -8.8081   10.4361 H           1 PFQ       0.0578
     39 H14        12.7797   -8.4185   11.5708 H           1 PFQ       0.0578
     40 H15        14.2043   -9.6776   13.3950 H           1 PFQ       0.0549
     41 H16        15.5272   -9.5364   12.2080 H           1 PFQ       0.0549
     42 H17        12.1306  -10.2742   11.0645 H           1 PFQ       0.2095
@<TRIPOS>BOND
     1    13     1  ar
     2    19     1  ar
     3     2     3   1
     4     2    15   1
     5    21     2   2
     6     3     4  ar
     7     3     8  ar
     8     4     5  ar
     9     5     6  ar
    10     7     6  ar
    11     8     7  ar
    12     9    10  ar
    13    22     9  ar
    14    10    11  ar
    15    12    11  ar
    16    20    12  ar
    17    14    13  ar
    18    14    15   1
    19    16    14  ar
    20    16    18  ar
    21    21    16   1
    22    18    17   1
    23    17    24   1
    24    18    19  ar
    25    22    20  ar
    26    21    22   1
    27    24    23   1
    28    23    25   1
    29     1    26   1
    30     4    27   1
    31     5    28   1
    32     6    29   1
    33     7    30   1
    34     8    31   1
    35     9    32   1
    36    10    33   1
    37    11    34   1
    38    12    35   1
    39    17    36   1
    40    20    37   1
    41    23    38   1
    42    23    39   1
    43    24    40   1
    44    24    41   1
    45    25    42   1
@<TRIPOS>SUBSTRUCTURE
     1  PFQ      1

