@<TRIPOS>MOLECULE
2brb_ligand_015
    42    45
SMALL
GAST_HUCK
****
This file was generated by PARSER (from files_GN.cpp)

@<TRIPOS>ATOM
      1 C2         17.2358  -11.0829   17.6316 C.ar        1 PFQ       0.0554
      2 C10        16.6983   -8.4494   14.0419 C.2         1 PFQ       0.1438
      3 C11        16.9557   -7.6239   12.9406 C.ar        1 PFQ       0.0192
      4 C12        17.8352   -6.5289   13.0764 C.ar        1 PFQ      -0.0510
      5 C13        18.1240   -5.7131   11.9672 C.ar        1 PFQ      -0.0615
      6 C14        17.5304   -5.9852   10.7217 C.ar        1 PFQ      -0.0622
      7 C15        16.6384   -7.0643   10.5905 C.ar        1 PFQ      -0.0615
      8 C16        16.3477   -7.8843   11.6972 C.ar        1 PFQ      -0.0510
      9 C19        14.8728   -6.1454   15.9405 C.ar        1 PFQ      -0.0609
     10 C20        13.8618   -5.1683   16.0050 C.ar        1 PFQ      -0.0660
     11 C21        12.7141   -5.2865   15.1994 C.ar        1 PFQ      -0.0660
     12 C22        12.5892   -6.3686   14.3079 C.ar        1 PFQ      -0.0660
     13 N1         17.7337  -10.8368   16.3936 N.ar        1 PFQ      -0.2620
     14 C6         17.1421   -9.8992   15.6132 C.ar        1 PFQ       0.2013
     15 O6         17.5491   -9.4384   14.4102 O.3         1 PFQ      -0.2284
     16 C5         16.0296   -9.1724   16.0485 C.ar        1 PFQ       0.0757
     17 N9         14.4946   -8.7090   17.8507 N.pl3       1 PFQ      -0.2984
     18 C4         15.5224   -9.4284   17.3423 C.ar        1 PFQ       0.1260
     19 N3         16.1652  -10.3767   18.0830 N.ar        1 PFQ      -0.2686
     20 C17        13.6030   -7.3437   14.2351 C.ar        1 PFQ      -0.0609
     21 C1         15.7312   -8.2564   15.0354 C.2         1 PFQ       0.0223
     22 C18        14.7468   -7.2470   15.0615 C.ar        1 PFQ      -0.0309
     23 C23        14.6853   -6.8573   19.4123 C.3         1 PFQ       0.0648
     24 C8         14.3260   -8.3576   19.2263 C.3         1 PFQ       0.0533
     25 O24        13.5091   -6.0656   19.5716 O.3         1 PFQ      -0.3930
     26 H1         17.6713  -11.7859   18.2298 H           1 PFQ       0.1000
     27 H2         18.2739   -6.3253   13.9820 H           1 PFQ       0.0623
     28 H3         18.7696   -4.9273   12.0744 H           1 PFQ       0.0616
     29 H4         17.7503   -5.3939    9.9180 H           1 PFQ       0.0614
     30 H5         16.2060   -7.2514    9.6824 H           1 PFQ       0.0616
     31 H6         15.6997   -8.6683   11.5790 H           1 PFQ       0.0623
     32 H7         15.6924   -6.0541   16.5482 H           1 PFQ       0.0583
     33 H8         13.9549   -4.3732   16.6418 H           1 PFQ       0.0606
     34 H9         11.9672   -4.5873   15.2637 H           1 PFQ       0.0581
     35 H10        11.7571   -6.4545   13.7229 H           1 PFQ       0.0606
     36 H11        13.8778   -8.2987   17.2279 H           1 PFQ       0.1865
     37 H12        13.4889   -8.1358   13.5960 H           1 PFQ       0.0583
     38 H13        15.2623   -6.4877   18.5383 H           1 PFQ       0.0578
     39 H14        15.3039   -6.7192   20.3109 H           1 PFQ       0.0578
     40 H15        14.9561   -8.9564   19.8887 H           1 PFQ       0.0549
     41 H16        13.2906   -8.5414   19.5096 H           1 PFQ       0.0549
     42 H17        13.7051   -5.2194   19.0847 H           1 PFQ       0.2095
@<TRIPOS>BOND
     1    13     1  ar
     2    19     1  ar
     3     2     3   1
     4     2    15   1
     5    21     2   2
     6     3     4  ar
     7     3     8  ar
     8     4     5  ar
     9     5     6  ar
    10     7     6  ar
    11     8     7  ar
    12     9    10  ar
    13    22     9  ar
    14    10    11  ar
    15    12    11  ar
    16    20    12  ar
    17    14    13  ar
    18    14    15   1
    19    16    14  ar
    20    16    18  ar
    21    21    16   1
    22    18    17   1
    23    17    24   1
    24    18    19  ar
    25    22    20  ar
    26    21    22   1
    27    24    23   1
    28    23    25   1
    29     1    26   1
    30     4    27   1
    31     5    28   1
    32     6    29   1
    33     7    30   1
    34     8    31   1
    35     9    32   1
    36    10    33   1
    37    11    34   1
    38    12    35   1
    39    17    36   1
    40    20    37   1
    41    23    38   1
    42    23    39   1
    43    24    40   1
    44    24    41   1
    45    25    42   1
@<TRIPOS>SUBSTRUCTURE
     1  PFQ      1

