@<TRIPOS>MOLECULE
2brb_ligand_017
    42    45
SMALL
GAST_HUCK
****
This file was generated by PARSER (from files_GN.cpp)

@<TRIPOS>ATOM
      1 C2         12.0324   -8.9471   11.0792 C.ar        1 PFQ       0.0554
      2 C10        16.2596   -8.9495   12.5556 C.2         1 PFQ       0.1438
      3 C11        17.5810   -9.3182   12.8541 C.ar        1 PFQ       0.0192
      4 C12        18.6642   -8.6095   12.2931 C.ar        1 PFQ      -0.0510
      5 C13        19.9901   -8.9848   12.5885 C.ar        1 PFQ      -0.0615
      6 C14        20.2382  -10.0626   13.4619 C.ar        1 PFQ      -0.0622
      7 C15        19.1621  -10.7809   14.0152 C.ar        1 PFQ      -0.0615
      8 C16        17.8355  -10.4064   13.7204 C.ar        1 PFQ      -0.0510
      9 C19        14.7689   -7.6338   15.5945 C.ar        1 PFQ      -0.0609
     10 C20        15.0609   -7.1211   16.8723 C.ar        1 PFQ      -0.0660
     11 C21        16.3009   -6.5113   17.1186 C.ar        1 PFQ      -0.0660
     12 C22        17.2539   -6.4174   16.0903 C.ar        1 PFQ      -0.0660
     13 N1         13.2608   -9.4820   10.8575 N.ar        1 PFQ      -0.2620
     14 C6         14.3091   -9.0700   11.6042 C.ar        1 PFQ       0.2013
     15 O6         15.5673   -9.5525   11.5650 O.3         1 PFQ      -0.2284
     16 C5         14.1782   -8.1118   12.6144 C.ar        1 PFQ       0.0757
     17 N9         12.5581   -6.4192   13.5151 N.pl3       1 PFQ      -0.2984
     18 C4         12.9065   -7.4979   12.7679 C.ar        1 PFQ       0.1260
     19 N3         11.8763   -7.9741   12.0161 N.ar        1 PFQ      -0.2686
     20 C17        16.9642   -6.9402   14.8149 C.ar        1 PFQ      -0.0609
     21 C1         15.4164   -8.0867   13.2722 C.2         1 PFQ       0.0223
     22 C18        15.7154   -7.5465   14.5480 C.ar        1 PFQ      -0.0309
     23 C23        12.8586   -4.2457   12.4186 C.3         1 PFQ       0.0648
     24 C8         13.2522   -5.1658   13.6001 C.3         1 PFQ       0.0533
     25 O24        11.4447   -4.0225   12.3706 O.3         1 PFQ      -0.3930
     26 H1         11.2318   -9.2535   10.5272 H           1 PFQ       0.1000
     27 H2         18.4943   -7.8206   11.6655 H           1 PFQ       0.0623
     28 H3         20.7707   -8.4670   12.1747 H           1 PFQ       0.0616
     29 H4         21.2020  -10.3279   13.6734 H           1 PFQ       0.0614
     30 H5         19.3485  -11.5680   14.6413 H           1 PFQ       0.0616
     31 H6         17.0663  -10.9446   14.1313 H           1 PFQ       0.0623
     32 H7         13.8582   -8.0724   15.4453 H           1 PFQ       0.0583
     33 H8         14.3720   -7.1937   17.6213 H           1 PFQ       0.0606
     34 H9         16.5116   -6.1335   18.0472 H           1 PFQ       0.0581
     35 H10        18.1542   -5.9704   16.2687 H           1 PFQ       0.0606
     36 H11        11.6129   -6.3832   13.7615 H           1 PFQ       0.1865
     37 H12        17.6646   -6.8421   14.0766 H           1 PFQ       0.0583
     38 H13        13.1763   -4.7139   11.4788 H           1 PFQ       0.0578
     39 H14        13.3652   -3.2819   12.5123 H           1 PFQ       0.0578
     40 H15        14.3360   -5.2692   13.5855 H           1 PFQ       0.0549
     41 H16        12.9662   -4.6884   14.5479 H           1 PFQ       0.0549
     42 H17        11.2962   -3.5933   11.4986 H           1 PFQ       0.2095
@<TRIPOS>BOND
     1    13     1  ar
     2    19     1  ar
     3     2     3   1
     4     2    15   1
     5    21     2   2
     6     3     4  ar
     7     3     8  ar
     8     4     5  ar
     9     5     6  ar
    10     7     6  ar
    11     8     7  ar
    12     9    10  ar
    13    22     9  ar
    14    10    11  ar
    15    12    11  ar
    16    20    12  ar
    17    14    13  ar
    18    14    15   1
    19    16    14  ar
    20    16    18  ar
    21    21    16   1
    22    18    17   1
    23    17    24   1
    24    18    19  ar
    25    22    20  ar
    26    21    22   1
    27    24    23   1
    28    23    25   1
    29     1    26   1
    30     4    27   1
    31     5    28   1
    32     6    29   1
    33     7    30   1
    34     8    31   1
    35     9    32   1
    36    10    33   1
    37    11    34   1
    38    12    35   1
    39    17    36   1
    40    20    37   1
    41    23    38   1
    42    23    39   1
    43    24    40   1
    44    24    41   1
    45    25    42   1
@<TRIPOS>SUBSTRUCTURE
     1  PFQ      1

