@<TRIPOS>MOLECULE
2brb_ligand_037
    42    45
SMALL
GAST_HUCK
****
This file was generated by PARSER (from files_GN.cpp)

@<TRIPOS>ATOM
      1 C2         12.4836   -8.5928   12.4506 C.ar        1 PFQ       0.0554
      2 C10        12.4166   -4.1008   12.2085 C.2         1 PFQ       0.1438
      3 C11        12.2515   -2.7713   11.7490 C.ar        1 PFQ       0.0192
      4 C12        12.1218   -1.6687   12.6261 C.ar        1 PFQ      -0.0510
      5 C13        12.0058   -0.3581   12.1211 C.ar        1 PFQ      -0.0615
      6 C14        12.0303   -0.1341   10.7332 C.ar        1 PFQ      -0.0622
      7 C15        12.1453   -1.2208    9.8489 C.ar        1 PFQ      -0.0615
      8 C16        12.2423   -2.5301   10.3534 C.ar        1 PFQ      -0.0510
      9 C19        13.8302   -3.5067   15.2708 C.ar        1 PFQ      -0.0609
     10 C20        14.7240   -2.7879   16.0837 C.ar        1 PFQ      -0.0660
     11 C21        16.0080   -2.4668   15.6079 C.ar        1 PFQ      -0.0660
     12 C22        16.4012   -2.8746   14.3189 C.ar        1 PFQ      -0.0660
     13 N1         11.8446   -7.5530   11.8551 N.ar        1 PFQ      -0.2620
     14 C6         12.1922   -6.2856   12.1814 C.ar        1 PFQ       0.2013
     15 O6         11.7543   -5.1351   11.6298 O.3         1 PFQ      -0.2284
     16 C5         13.1783   -6.0068   13.1246 C.ar        1 PFQ       0.0757
     17 N9         14.8927   -6.8821   14.5669 N.pl3       1 PFQ      -0.2984
     18 C4         13.8601   -7.0958   13.7170 C.ar        1 PFQ       0.1260
     19 N3         13.4797   -8.3559   13.3472 N.ar        1 PFQ      -0.2686
     20 C17        15.5046   -3.5821   13.4989 C.ar        1 PFQ      -0.0609
     21 C1         13.3003   -4.6169   13.1702 C.2         1 PFQ       0.0223
     22 C18        14.2080   -3.8966   13.9683 C.ar        1 PFQ      -0.0309
     23 C23        15.7973   -7.8859   16.6374 C.3         1 PFQ       0.0648
     24 C8         15.7879   -7.8648   15.0940 C.3         1 PFQ       0.0533
     25 O24        14.7794   -8.7390   17.1540 O.3         1 PFQ      -0.3930
     26 H1         12.2285   -9.5534   12.2121 H           1 PFQ       0.1000
     27 H2         12.0935   -1.8031   13.6372 H           1 PFQ       0.0623
     28 H3         11.9126    0.4319   12.7628 H           1 PFQ       0.0616
     29 H4         11.9642    0.8184   10.3653 H           1 PFQ       0.0614
     30 H5         12.1681   -1.0600    8.8398 H           1 PFQ       0.0616
     31 H6         12.3406   -3.3016    9.6895 H           1 PFQ       0.0623
     32 H7         12.8965   -3.7300   15.6298 H           1 PFQ       0.0583
     33 H8         14.4329   -2.4884   17.0170 H           1 PFQ       0.0606
     34 H9         16.6487   -1.9333   16.1968 H           1 PFQ       0.0581
     35 H10        17.3422   -2.6550   13.9838 H           1 PFQ       0.0606
     36 H11        15.1208   -5.9630   14.7570 H           1 PFQ       0.1865
     37 H12        15.8054   -3.8735   12.5648 H           1 PFQ       0.0583
     38 H13        15.6637   -6.8802   17.0404 H           1 PFQ       0.0578
     39 H14        16.7599   -8.2695   16.9826 H           1 PFQ       0.0578
     40 H15        16.7856   -7.5892   14.7456 H           1 PFQ       0.0549
     41 H16        15.5747   -8.8721   14.7254 H           1 PFQ       0.0549
     42 H17        13.9294   -8.2930   16.9550 H           1 PFQ       0.2095
@<TRIPOS>BOND
     1    13     1  ar
     2    19     1  ar
     3     2     3   1
     4     2    15   1
     5    21     2   2
     6     3     4  ar
     7     3     8  ar
     8     4     5  ar
     9     5     6  ar
    10     7     6  ar
    11     8     7  ar
    12     9    10  ar
    13    22     9  ar
    14    10    11  ar
    15    12    11  ar
    16    20    12  ar
    17    14    13  ar
    18    14    15   1
    19    16    14  ar
    20    16    18  ar
    21    21    16   1
    22    18    17   1
    23    17    24   1
    24    18    19  ar
    25    22    20  ar
    26    21    22   1
    27    24    23   1
    28    23    25   1
    29     1    26   1
    30     4    27   1
    31     5    28   1
    32     6    29   1
    33     7    30   1
    34     8    31   1
    35     9    32   1
    36    10    33   1
    37    11    34   1
    38    12    35   1
    39    17    36   1
    40    20    37   1
    41    23    38   1
    42    23    39   1
    43    24    40   1
    44    24    41   1
    45    25    42   1
@<TRIPOS>SUBSTRUCTURE
     1  PFQ      1

