@<TRIPOS>MOLECULE
2brb_ligand_022
    42    45
SMALL
GAST_HUCK
****
This file was generated by PARSER (from files_GN.cpp)

@<TRIPOS>ATOM
      1 C2         17.6498   -9.7371   12.5056 C.ar        1 PFQ       0.0554
      2 C10        17.6786   -5.3210   11.6513 C.2         1 PFQ       0.1438
      3 C11        18.0901   -4.0137   11.3080 C.ar        1 PFQ       0.0192
      4 C12        17.9221   -3.5517    9.9815 C.ar        1 PFQ      -0.0510
      5 C13        18.4175   -2.2928    9.6001 C.ar        1 PFQ      -0.0615
      6 C14        19.1057   -1.4961   10.5271 C.ar        1 PFQ      -0.0622
      7 C15        19.3065   -1.9594   11.8383 C.ar        1 PFQ      -0.0615
      8 C16        18.7995   -3.2145   12.2295 C.ar        1 PFQ      -0.0510
      9 C19        14.7451   -4.2855   10.7950 C.ar        1 PFQ      -0.0609
     10 C20        13.5082   -3.6164   10.8588 C.ar        1 PFQ      -0.0660
     11 C21        12.6437   -3.8270   11.9501 C.ar        1 PFQ      -0.0660
     12 C22        13.0387   -4.6816   12.9964 C.ar        1 PFQ      -0.0660
     13 N1         18.4757   -8.6696   12.3315 N.ar        1 PFQ      -0.2620
     14 C6         17.9434   -7.4465   12.0942 C.ar        1 PFQ       0.2013
     15 O6         18.6020   -6.2940   11.8636 O.3         1 PFQ      -0.2284
     16 C5         16.5664   -7.2357   12.0234 C.ar        1 PFQ       0.0757
     17 N9         14.3725   -8.2443   11.9992 N.pl3       1 PFQ      -0.2984
     18 C4         15.7139   -8.3610   12.1619 C.ar        1 PFQ       0.1260
     19 N3         16.3030   -9.5716   12.3932 N.ar        1 PFQ      -0.2686
     20 C17        14.2744   -5.3493   12.9330 C.ar        1 PFQ      -0.0609
     21 C1         16.3863   -5.8633   11.7867 C.2         1 PFQ       0.0223
     22 C18        15.1599   -5.1446   11.8402 C.ar        1 PFQ      -0.0309
     23 C23        12.0421   -8.8134   11.4327 C.3         1 PFQ       0.0648
     24 C8         13.4942   -9.3103   11.6040 C.3         1 PFQ       0.0533
     25 O24        11.1310   -9.9111   11.5203 O.3         1 PFQ      -0.3930
     26 H1         18.0395  -10.6610   12.6871 H           1 PFQ       0.1000
     27 H2         17.4793   -4.1469    9.2807 H           1 PFQ       0.0623
     28 H3         18.2810   -1.9672    8.6440 H           1 PFQ       0.0616
     29 H4         19.4822   -0.5918   10.2408 H           1 PFQ       0.0614
     30 H5         19.8298   -1.3900   12.5039 H           1 PFQ       0.0616
     31 H6         18.9661   -3.5415   13.1850 H           1 PFQ       0.0623
     32 H7         15.3358   -4.1456    9.9704 H           1 PFQ       0.0583
     33 H8         13.2137   -3.0056   10.0913 H           1 PFQ       0.0606
     34 H9         11.7363   -3.3541   11.9882 H           1 PFQ       0.0581
     35 H10        12.4050   -4.8499   13.7810 H           1 PFQ       0.0606
     36 H11        13.9852   -7.3607   12.1203 H           1 PFQ       0.1865
     37 H12        14.5500   -5.9519   13.7150 H           1 PFQ       0.0583
     38 H13        11.9195   -8.3318   10.4573 H           1 PFQ       0.0578
     39 H14        11.7974   -8.0729   12.2059 H           1 PFQ       0.0578
     40 H15        13.5085  -10.1280   12.3414 H           1 PFQ       0.0549
     41 H16        13.8380   -9.6935   10.6386 H           1 PFQ       0.0549
     42 H17        10.2415   -9.4914   11.5446 H           1 PFQ       0.2095
@<TRIPOS>BOND
     1    13     1  ar
     2    19     1  ar
     3     2     3   1
     4     2    15   1
     5    21     2   2
     6     3     4  ar
     7     3     8  ar
     8     4     5  ar
     9     5     6  ar
    10     7     6  ar
    11     8     7  ar
    12     9    10  ar
    13    22     9  ar
    14    10    11  ar
    15    12    11  ar
    16    20    12  ar
    17    14    13  ar
    18    14    15   1
    19    16    14  ar
    20    16    18  ar
    21    21    16   1
    22    18    17   1
    23    17    24   1
    24    18    19  ar
    25    22    20  ar
    26    21    22   1
    27    24    23   1
    28    23    25   1
    29     1    26   1
    30     4    27   1
    31     5    28   1
    32     6    29   1
    33     7    30   1
    34     8    31   1
    35     9    32   1
    36    10    33   1
    37    11    34   1
    38    12    35   1
    39    17    36   1
    40    20    37   1
    41    23    38   1
    42    23    39   1
    43    24    40   1
    44    24    41   1
    45    25    42   1
@<TRIPOS>SUBSTRUCTURE
     1  PFQ      1

