@<TRIPOS>MOLECULE
2brb_ligand_018
    42    45
SMALL
GAST_HUCK
****
This file was generated by PARSER (from files_GN.cpp)

@<TRIPOS>ATOM
      1 C2         11.3229   -3.5370   10.9249 C.ar        1 PFQ       0.0554
      2 C10        15.7868   -3.0942   11.1239 C.2         1 PFQ       0.1438
      3 C11        17.1728   -3.0367   10.8404 C.ar        1 PFQ       0.0192
      4 C12        18.0611   -2.3385   11.6780 C.ar        1 PFQ      -0.0510
      5 C13        19.4486   -2.3571   11.4314 C.ar        1 PFQ      -0.0615
      6 C14        19.9545   -3.1085   10.3538 C.ar        1 PFQ      -0.0622
      7 C15        19.0801   -3.8053    9.5107 C.ar        1 PFQ      -0.0615
      8 C16        17.6859   -3.7659    9.7466 C.ar        1 PFQ      -0.0510
      9 C19        16.5852   -4.9957   13.6257 C.ar        1 PFQ      -0.0609
     10 C20        17.1208   -5.4094   14.8592 C.ar        1 PFQ      -0.0660
     11 C21        16.8921   -4.6517   16.0210 C.ar        1 PFQ      -0.0660
     12 C22        16.1356   -3.4651   15.9452 C.ar        1 PFQ      -0.0660
     13 N1         12.3962   -3.1280   10.2018 N.ar        1 PFQ      -0.2620
     14 C6         13.6274   -3.1500   10.7631 C.ar        1 PFQ       0.2013
     15 O6         14.8240   -2.8989   10.1852 O.3         1 PFQ      -0.2284
     16 C5         13.8222   -3.5571   12.0847 C.ar        1 PFQ       0.0757
     17 N9         12.9106   -4.7497   13.9469 N.pl3       1 PFQ      -0.2984
     18 C4         12.7130   -4.1023   12.7725 C.ar        1 PFQ       0.1260
     19 N3         11.4878   -4.0538   12.1705 N.ar        1 PFQ      -0.2686
     20 C17        15.6117   -3.0418   14.7118 C.ar        1 PFQ      -0.0609
     21 C1         15.1890   -3.4573   12.3364 C.2         1 PFQ       0.0223
     22 C18        15.8157   -3.8181   13.5499 C.ar        1 PFQ      -0.0309
     23 C23        13.8360   -6.9472   14.3441 C.3         1 PFQ       0.0648
     24 C8         12.5375   -6.1004   14.2373 C.3         1 PFQ       0.0533
     25 O24        14.3502   -6.9417   15.6769 O.3         1 PFQ      -0.3930
     26 H1         10.4000   -3.5090   10.5122 H           1 PFQ       0.1000
     27 H2         17.7114   -1.7982   12.4682 H           1 PFQ       0.0623
     28 H3         20.0875   -1.8439   12.0377 H           1 PFQ       0.0616
     29 H4         20.9639   -3.1367   10.1774 H           1 PFQ       0.0614
     30 H5         19.4496   -4.3683    8.7332 H           1 PFQ       0.0616
     31 H6         17.0641   -4.3071    9.1344 H           1 PFQ       0.0623
     32 H7         16.7191   -5.5845   12.8016 H           1 PFQ       0.0583
     33 H8         17.6653   -6.2741   14.9143 H           1 PFQ       0.0606
     34 H9         17.2772   -4.9606   16.9178 H           1 PFQ       0.0581
     35 H10        15.9661   -2.9190   16.7905 H           1 PFQ       0.0606
     36 H11        13.5696   -4.3900   14.5493 H           1 PFQ       0.1865
     37 H12        15.0625   -2.1774   14.6785 H           1 PFQ       0.0583
     38 H13        14.6053   -6.5519   13.6655 H           1 PFQ       0.0578
     39 H14        13.6373   -7.9822   14.0536 H           1 PFQ       0.0578
     40 H15        11.9154   -6.5472   13.4541 H           1 PFQ       0.0549
     41 H16        11.9998   -6.1343   15.1897 H           1 PFQ       0.0549
     42 H17        13.6745   -7.4437   16.1815 H           1 PFQ       0.2095
@<TRIPOS>BOND
     1    13     1  ar
     2    19     1  ar
     3     2     3   1
     4     2    15   1
     5    21     2   2
     6     3     4  ar
     7     3     8  ar
     8     4     5  ar
     9     5     6  ar
    10     7     6  ar
    11     8     7  ar
    12     9    10  ar
    13    22     9  ar
    14    10    11  ar
    15    12    11  ar
    16    20    12  ar
    17    14    13  ar
    18    14    15   1
    19    16    14  ar
    20    16    18  ar
    21    21    16   1
    22    18    17   1
    23    17    24   1
    24    18    19  ar
    25    22    20  ar
    26    21    22   1
    27    24    23   1
    28    23    25   1
    29     1    26   1
    30     4    27   1
    31     5    28   1
    32     6    29   1
    33     7    30   1
    34     8    31   1
    35     9    32   1
    36    10    33   1
    37    11    34   1
    38    12    35   1
    39    17    36   1
    40    20    37   1
    41    23    38   1
    42    23    39   1
    43    24    40   1
    44    24    41   1
    45    25    42   1
@<TRIPOS>SUBSTRUCTURE
     1  PFQ      1

