@<TRIPOS>MOLECULE
2brb_ligand_026
    42    45
SMALL
GAST_HUCK
****
This file was generated by PARSER (from files_GN.cpp)

@<TRIPOS>ATOM
      1 C2         23.7799   -2.4311   10.2463 C.ar        1 PFQ       0.0554
      2 C10        19.6960   -3.5524   11.6469 C.2         1 PFQ       0.1438
      3 C11        18.5677   -4.2399   12.0841 C.ar        1 PFQ       0.0192
      4 C12        18.0067   -5.2376   11.2626 C.ar        1 PFQ      -0.0510
      5 C13        16.8494   -5.9361   11.6545 C.ar        1 PFQ      -0.0615
      6 C14        16.2391   -5.6339   12.8921 C.ar        1 PFQ      -0.0622
      7 C15        16.7768   -4.6241   13.7227 C.ar        1 PFQ      -0.0615
      8 C16        17.9476   -3.9401   13.3188 C.ar        1 PFQ      -0.0510
      9 C19        18.2654   -0.4955   10.5650 C.ar        1 PFQ      -0.0609
     10 C20        17.1981    0.1781    9.9363 C.ar        1 PFQ      -0.0660
     11 C21        16.4662   -0.4575    8.9106 C.ar        1 PFQ      -0.0660
     12 C22        16.7629   -1.7903    8.5652 C.ar        1 PFQ      -0.0660
     13 N1         23.1355   -3.2679   11.1148 N.ar        1 PFQ      -0.2620
     14 C6         21.7902   -3.1826   11.2371 C.ar        1 PFQ       0.2013
     15 O6         20.9455   -3.9614   11.9409 O.3         1 PFQ      -0.2284
     16 C5         21.0581   -2.2226   10.5312 C.ar        1 PFQ       0.0757
     17 N9         21.0230   -0.6059    8.7865 N.pl3       1 PFQ      -0.2984
     18 C4         21.7427   -1.3982    9.6088 C.ar        1 PFQ       0.1260
     19 N3         23.0778   -1.5539    9.4847 N.ar        1 PFQ      -0.2686
     20 C17        17.8462   -2.4484    9.1770 C.ar        1 PFQ      -0.0609
     21 C1         19.7111   -2.4534   10.7838 C.2         1 PFQ       0.0223
     22 C18        18.5865   -1.8242   10.2097 C.ar        1 PFQ      -0.0309
     23 C23        21.3214   -2.0041    6.6450 C.3         1 PFQ       0.0648
     24 C8         20.5722   -0.9252    7.4454 C.3         1 PFQ       0.0533
     25 O24        21.4906   -3.2222    7.3874 O.3         1 PFQ      -0.3930
     26 H1         24.8033   -2.4950   10.1278 H           1 PFQ       0.1000
     27 H2         18.4378   -5.5029   10.3724 H           1 PFQ       0.0623
     28 H3         16.4456   -6.6820   11.0656 H           1 PFQ       0.0616
     29 H4         15.3968   -6.1298   13.1920 H           1 PFQ       0.0614
     30 H5         16.3488   -4.4033   14.6282 H           1 PFQ       0.0616
     31 H6         18.3366   -3.2188   13.9231 H           1 PFQ       0.0623
     32 H7         18.7899   -0.0043   11.2832 H           1 PFQ       0.0583
     33 H8         16.9615    1.1380   10.2051 H           1 PFQ       0.0606
     34 H9         15.6968    0.0394    8.4458 H           1 PFQ       0.0581
     35 H10        16.2158   -2.2546    7.8361 H           1 PFQ       0.0606
     36 H11        20.4963    0.0842    9.2303 H           1 PFQ       0.1865
     37 H12        18.0543   -3.4048    8.8929 H           1 PFQ       0.0583
     38 H13        22.3111   -1.6379    6.3318 H           1 PFQ       0.0578
     39 H14        20.7226   -2.2425    5.7405 H           1 PFQ       0.0578
     40 H15        20.5660    0.0234    6.8878 H           1 PFQ       0.0549
     41 H16        19.5291   -1.2643    7.6176 H           1 PFQ       0.0549
     42 H17        20.5754   -3.6022    7.4590 H           1 PFQ       0.2095
@<TRIPOS>BOND
     1    13     1  ar
     2    19     1  ar
     3     2     3   1
     4     2    15   1
     5    21     2   2
     6     3     4  ar
     7     3     8  ar
     8     4     5  ar
     9     5     6  ar
    10     7     6  ar
    11     8     7  ar
    12     9    10  ar
    13    22     9  ar
    14    10    11  ar
    15    12    11  ar
    16    20    12  ar
    17    14    13  ar
    18    14    15   1
    19    16    14  ar
    20    16    18  ar
    21    21    16   1
    22    18    17   1
    23    17    24   1
    24    18    19  ar
    25    22    20  ar
    26    21    22   1
    27    24    23   1
    28    23    25   1
    29     1    26   1
    30     4    27   1
    31     5    28   1
    32     6    29   1
    33     7    30   1
    34     8    31   1
    35     9    32   1
    36    10    33   1
    37    11    34   1
    38    12    35   1
    39    17    36   1
    40    20    37   1
    41    23    38   1
    42    23    39   1
    43    24    40   1
    44    24    41   1
    45    25    42   1
@<TRIPOS>SUBSTRUCTURE
     1  PFQ      1

