@<TRIPOS>MOLECULE
2brb_ligand_003
    42    45
SMALL
GAST_HUCK
****
This file was generated by PARSER (from files_GN.cpp)

@<TRIPOS>ATOM
      1 C2         17.2429  -11.6500   15.2367 C.ar        1 PFQ       0.0554
      2 C10        16.6857   -7.9851   12.7076 C.2         1 PFQ       0.1438
      3 C11        16.9477   -6.8600   11.9024 C.ar        1 PFQ       0.0192
      4 C12        17.7717   -5.8213   12.4006 C.ar        1 PFQ      -0.0510
      5 C13        18.1006   -4.7222   11.5890 C.ar        1 PFQ      -0.0615
      6 C14        17.6198   -4.6524   10.2692 C.ar        1 PFQ      -0.0622
      7 C15        16.8060   -5.6819    9.7657 C.ar        1 PFQ      -0.0615
      8 C16        16.4762   -6.7875   10.5735 C.ar        1 PFQ      -0.0510
      9 C19        13.6859   -6.9232   13.1818 C.ar        1 PFQ      -0.0609
     10 C20        12.6547   -6.0308   13.5250 C.ar        1 PFQ      -0.0660
     11 C21        12.6841   -5.3631   14.7626 C.ar        1 PFQ      -0.0660
     12 C22        13.7451   -5.5807   15.6563 C.ar        1 PFQ      -0.0660
     13 N1         17.7200  -11.0063   14.1392 N.ar        1 PFQ      -0.2620
     14 C6         17.1311   -9.8598   13.7243 C.ar        1 PFQ       0.2013
     15 O6         17.5133   -9.0595   12.7070 O.3         1 PFQ      -0.2284
     16 C5         16.0417   -9.3072   14.3965 C.ar        1 PFQ       0.0757
     17 N9         14.5067   -9.4944   16.2569 N.pl3       1 PFQ      -0.2984
     18 C4         15.5489   -9.9836   15.5393 C.ar        1 PFQ       0.1260
     19 N3         16.1919  -11.1261   15.9222 N.ar        1 PFQ      -0.2686
     20 C17        14.7806   -6.4721   15.3164 C.ar        1 PFQ      -0.0609
     21 C1         15.7530   -8.1023   13.7494 C.2         1 PFQ       0.0223
     22 C18        14.7526   -7.1591   14.0822 C.ar        1 PFQ      -0.0309
     23 C23        13.1142  -10.6441   18.0351 C.3         1 PFQ       0.0648
     24 C8         14.3044   -9.7221   17.6523 C.3         1 PFQ       0.0533
     25 O24        12.5892  -11.3653   16.9231 O.3         1 PFQ      -0.3930
     26 H1         17.6863  -12.5054   15.5564 H           1 PFQ       0.1000
     27 H2         18.1442   -5.8677   13.3555 H           1 PFQ       0.0623
     28 H3         18.6982   -3.9783   11.9543 H           1 PFQ       0.0616
     29 H4         17.8631   -3.8564    9.6766 H           1 PFQ       0.0614
     30 H5         16.4542   -5.6311    8.8038 H           1 PFQ       0.0616
     31 H6         15.8889   -7.5335   10.1892 H           1 PFQ       0.0623
     32 H7         13.6480   -7.4130   12.2847 H           1 PFQ       0.0583
     33 H8         11.8864   -5.8707   12.8720 H           1 PFQ       0.0606
     34 H9         11.9319   -4.7186   15.0107 H           1 PFQ       0.0581
     35 H10        13.7689   -5.0913   16.5500 H           1 PFQ       0.0606
     36 H11        13.9862   -8.7763   15.8621 H           1 PFQ       0.1865
     37 H12        15.5489   -6.6204   15.9754 H           1 PFQ       0.0583
     38 H13        12.3099  -10.0539   18.4798 H           1 PFQ       0.0578
     39 H14        13.4403  -11.3724   18.7846 H           1 PFQ       0.0578
     40 H15        14.1351   -8.7395   18.0972 H           1 PFQ       0.0549
     41 H16        15.2166  -10.1115   18.1215 H           1 PFQ       0.0549
     42 H17        11.7737  -11.7844   17.2675 H           1 PFQ       0.2095
@<TRIPOS>BOND
     1    13     1  ar
     2    19     1  ar
     3     2     3   1
     4     2    15   1
     5    21     2   2
     6     3     4  ar
     7     3     8  ar
     8     4     5  ar
     9     5     6  ar
    10     7     6  ar
    11     8     7  ar
    12     9    10  ar
    13    22     9  ar
    14    10    11  ar
    15    12    11  ar
    16    20    12  ar
    17    14    13  ar
    18    14    15   1
    19    16    14  ar
    20    16    18  ar
    21    21    16   1
    22    18    17   1
    23    17    24   1
    24    18    19  ar
    25    22    20  ar
    26    21    22   1
    27    24    23   1
    28    23    25   1
    29     1    26   1
    30     4    27   1
    31     5    28   1
    32     6    29   1
    33     7    30   1
    34     8    31   1
    35     9    32   1
    36    10    33   1
    37    11    34   1
    38    12    35   1
    39    17    36   1
    40    20    37   1
    41    23    38   1
    42    23    39   1
    43    24    40   1
    44    24    41   1
    45    25    42   1
@<TRIPOS>SUBSTRUCTURE
     1  PFQ      1

