@<TRIPOS>MOLECULE
2brb_ligand_007
    42    45
SMALL
GAST_HUCK
****
This file was generated by PARSER (from files_GN.cpp)

@<TRIPOS>ATOM
      1 C2         17.3721  -11.9317   15.6777 C.ar        1 PFQ       0.0554
      2 C10        14.8351   -8.3869   14.5837 C.2         1 PFQ       0.1438
      3 C11        14.0368   -7.2296   14.6610 C.ar        1 PFQ       0.0192
      4 C12        13.1992   -6.8155   13.6015 C.ar        1 PFQ      -0.0510
      5 C13        12.4804   -5.6083   13.6970 C.ar        1 PFQ      -0.0615
      6 C14        12.6192   -4.7903   14.8350 C.ar        1 PFQ      -0.0622
      7 C15        13.4569   -5.1952   15.8904 C.ar        1 PFQ      -0.0615
      8 C16        14.1498   -6.4153   15.8109 C.ar        1 PFQ      -0.0510
      9 C19        15.8467   -7.9160   11.3766 C.ar        1 PFQ      -0.0609
     10 C20        16.3387   -7.1094   10.3339 C.ar        1 PFQ      -0.0660
     11 C21        17.3314   -6.1450   10.5914 C.ar        1 PFQ      -0.0660
     12 C22        17.8280   -5.9839   11.8999 C.ar        1 PFQ      -0.0660
     13 N1         16.2368  -11.2729   16.0186 N.ar        1 PFQ      -0.2620
     14 C6         15.8403  -10.2029   15.2896 C.ar        1 PFQ       0.2013
     15 O6         14.8149   -9.3607   15.5311 O.3         1 PFQ      -0.2284
     16 C5         16.5630   -9.7603   14.1805 C.ar        1 PFQ       0.0757
     17 N9         18.5648   -9.9929   12.8446 N.pl3       1 PFQ      -0.2984
     18 C4         17.7650  -10.4309   13.8509 C.ar        1 PFQ       0.1260
     19 N3         18.1176  -11.4933   14.6292 N.ar        1 PFQ      -0.2686
     20 C17        17.3369   -6.7908   12.9436 C.ar        1 PFQ      -0.0609
     21 C1         15.9051   -8.6230   13.7120 C.2         1 PFQ       0.0223
     22 C18        16.3535   -7.7697   12.6857 C.ar        1 PFQ      -0.0309
     23 C23        20.4661  -11.6442   12.4385 C.3         1 PFQ       0.0648
     24 C8         19.9820  -10.1965   12.7254 C.3         1 PFQ       0.0533
     25 O24        20.0904  -12.0632   11.1287 O.3         1 PFQ      -0.3930
     26 H1         17.6846  -12.7346   16.2247 H           1 PFQ       0.1000
     27 H2         13.0967   -7.3965   12.7673 H           1 PFQ       0.0623
     28 H3         11.8687   -5.3180   12.9304 H           1 PFQ       0.0616
     29 H4         12.1068   -3.9084   14.8940 H           1 PFQ       0.0614
     30 H5         13.5744   -4.5892   16.7063 H           1 PFQ       0.0616
     31 H6         14.7589   -6.6806   16.5884 H           1 PFQ       0.0623
     32 H7         15.1305   -8.6182   11.1672 H           1 PFQ       0.0583
     33 H8         15.9767   -7.2212    9.3811 H           1 PFQ       0.0606
     34 H9         17.6908   -5.5626    9.8311 H           1 PFQ       0.0581
     35 H10        18.5463   -5.2771   12.0899 H           1 PFQ       0.0606
     36 H11        18.1729   -9.3709   12.2082 H           1 PFQ       0.1865
     37 H12        17.7194   -6.6698   13.8858 H           1 PFQ       0.0583
     38 H13        20.0629  -12.3487   13.1792 H           1 PFQ       0.0578
     39 H14        21.5576  -11.6662   12.5136 H           1 PFQ       0.0578
     40 H15        20.4675   -9.8316   13.6410 H           1 PFQ       0.0549
     41 H16        20.3202   -9.5607   11.9042 H           1 PFQ       0.0549
     42 H17        20.5096  -12.9444   11.0291 H           1 PFQ       0.2095
@<TRIPOS>BOND
     1    13     1  ar
     2    19     1  ar
     3     2     3   1
     4     2    15   1
     5    21     2   2
     6     3     4  ar
     7     3     8  ar
     8     4     5  ar
     9     5     6  ar
    10     7     6  ar
    11     8     7  ar
    12     9    10  ar
    13    22     9  ar
    14    10    11  ar
    15    12    11  ar
    16    20    12  ar
    17    14    13  ar
    18    14    15   1
    19    16    14  ar
    20    16    18  ar
    21    21    16   1
    22    18    17   1
    23    17    24   1
    24    18    19  ar
    25    22    20  ar
    26    21    22   1
    27    24    23   1
    28    23    25   1
    29     1    26   1
    30     4    27   1
    31     5    28   1
    32     6    29   1
    33     7    30   1
    34     8    31   1
    35     9    32   1
    36    10    33   1
    37    11    34   1
    38    12    35   1
    39    17    36   1
    40    20    37   1
    41    23    38   1
    42    23    39   1
    43    24    40   1
    44    24    41   1
    45    25    42   1
@<TRIPOS>SUBSTRUCTURE
     1  PFQ      1

