@<TRIPOS>MOLECULE
2brb_ligand_031
    42    45
SMALL
GAST_HUCK
****
This file was generated by PARSER (from files_GN.cpp)

@<TRIPOS>ATOM
      1 C2         12.8106  -10.1557   12.5810 C.ar        1 PFQ       0.0554
      2 C10        12.9760   -5.7229   13.3249 C.2         1 PFQ       0.1438
      3 C11        12.7116   -4.3294   13.3412 C.ar        1 PFQ       0.0192
      4 C12        12.8334   -3.5640   14.5272 C.ar        1 PFQ      -0.0510
      5 C13        12.5371   -2.1904   14.5257 C.ar        1 PFQ      -0.0615
      6 C14        12.1111   -1.5569   13.3447 C.ar        1 PFQ      -0.0622
      7 C15        11.9603   -2.3110   12.1662 C.ar        1 PFQ      -0.0615
      8 C16        12.2547   -3.6864   12.1653 C.ar        1 PFQ      -0.0510
      9 C19        14.5740   -6.3227   16.4700 C.ar        1 PFQ      -0.0609
     10 C20        15.5165   -5.8884   17.4180 C.ar        1 PFQ      -0.0660
     11 C21        16.6276   -5.1316   17.0082 C.ar        1 PFQ      -0.0660
     12 C22        16.7906   -4.7922   15.6523 C.ar        1 PFQ      -0.0660
     13 N1         12.3113   -8.9706   12.1435 N.ar        1 PFQ      -0.2620
     14 C6         12.7329   -7.8240   12.7246 C.ar        1 PFQ       0.2013
     15 O6         12.3216   -6.5615   12.4788 O.3         1 PFQ      -0.2284
     16 C5         13.6805   -7.8231   13.7492 C.ar        1 PFQ       0.0757
     17 N9         15.1812   -9.1158   15.1212 N.pl3       1 PFQ      -0.2984
     18 C4         14.2209   -9.0623   14.1683 C.ar        1 PFQ       0.1260
     19 N3         13.7396  -10.1915   13.5737 N.ar        1 PFQ      -0.2686
     20 C17        15.8555   -5.2336   14.6995 C.ar        1 PFQ      -0.0609
     21 C1         13.8477   -6.4879   14.1238 C.2         1 PFQ       0.0223
     22 C18        14.7468   -6.0102   15.1018 C.ar        1 PFQ      -0.0309
     23 C23        14.2943  -10.2029   17.1492 C.3         1 PFQ       0.0648
     24 C8         15.4083  -10.1554   16.0727 C.3         1 PFQ       0.0533
     25 O24        13.1745  -10.9676   16.7069 O.3         1 PFQ      -0.3930
     26 H1         12.4989  -11.0237   12.1487 H           1 PFQ       0.1000
     27 H2         13.1018   -3.9904   15.4157 H           1 PFQ       0.0623
     28 H3         12.6367   -1.6497   15.3877 H           1 PFQ       0.0616
     29 H4         11.8889   -0.5563   13.3468 H           1 PFQ       0.0614
     30 H5         11.6432   -1.8579   11.3058 H           1 PFQ       0.0616
     31 H6         12.1440   -4.2144   11.2993 H           1 PFQ       0.0623
     32 H7         13.7620   -6.8683   16.7745 H           1 PFQ       0.0583
     33 H8         15.3922   -6.1365   18.4006 H           1 PFQ       0.0606
     34 H9         17.3133   -4.8349   17.7030 H           1 PFQ       0.0581
     35 H10        17.6013   -4.2461   15.3604 H           1 PFQ       0.0606
     36 H11        15.7348   -8.3291   15.2290 H           1 PFQ       0.1865
     37 H12        15.9980   -4.9920   13.7128 H           1 PFQ       0.0583
     38 H13        13.9532   -9.1827   17.3802 H           1 PFQ       0.0578
     39 H14        14.6814  -10.6480   18.0791 H           1 PFQ       0.0578
     40 H15        16.3416   -9.9327   16.5796 H           1 PFQ       0.0549
     41 H16        15.5153  -11.1304   15.5919 H           1 PFQ       0.0549
     42 H17        12.5103  -10.8855   17.4287 H           1 PFQ       0.2095
@<TRIPOS>BOND
     1    13     1  ar
     2    19     1  ar
     3     2     3   1
     4     2    15   1
     5    21     2   2
     6     3     4  ar
     7     3     8  ar
     8     4     5  ar
     9     5     6  ar
    10     7     6  ar
    11     8     7  ar
    12     9    10  ar
    13    22     9  ar
    14    10    11  ar
    15    12    11  ar
    16    20    12  ar
    17    14    13  ar
    18    14    15   1
    19    16    14  ar
    20    16    18  ar
    21    21    16   1
    22    18    17   1
    23    17    24   1
    24    18    19  ar
    25    22    20  ar
    26    21    22   1
    27    24    23   1
    28    23    25   1
    29     1    26   1
    30     4    27   1
    31     5    28   1
    32     6    29   1
    33     7    30   1
    34     8    31   1
    35     9    32   1
    36    10    33   1
    37    11    34   1
    38    12    35   1
    39    17    36   1
    40    20    37   1
    41    23    38   1
    42    23    39   1
    43    24    40   1
    44    24    41   1
    45    25    42   1
@<TRIPOS>SUBSTRUCTURE
     1  PFQ      1

