@<TRIPOS>MOLECULE
2brb_ligand_028
    42    45
SMALL
GAST_HUCK
****
This file was generated by PARSER (from files_GN.cpp)

@<TRIPOS>ATOM
      1 C2         12.3704   -9.8280   11.8150 C.ar        1 PFQ       0.0554
      2 C10        14.1785   -9.5006   15.9233 C.2         1 PFQ       0.1438
      3 C11        14.5187   -9.7506   17.2774 C.ar        1 PFQ       0.0192
      4 C12        14.4501   -8.7355   18.2650 C.ar        1 PFQ      -0.0510
      5 C13        14.7409   -9.0164   19.6099 C.ar        1 PFQ      -0.0615
      6 C14        15.0856  -10.3276   19.9959 C.ar        1 PFQ      -0.0622
      7 C15        15.1304  -11.3492   19.0325 C.ar        1 PFQ      -0.0615
      8 C16        14.8336  -11.0698   17.6885 C.ar        1 PFQ      -0.0510
      9 C19        13.8204   -5.9809   15.9063 C.ar        1 PFQ      -0.0609
     10 C20        14.3292   -4.7182   16.2540 C.ar        1 PFQ      -0.0660
     11 C21        15.7172   -4.5175   16.3307 C.ar        1 PFQ      -0.0660
     12 C22        16.5998   -5.5770   16.0631 C.ar        1 PFQ      -0.0660
     13 N1         12.7238  -10.5661   12.8975 N.ar        1 PFQ      -0.2620
     14 C6         13.3306   -9.9492   13.9407 C.ar        1 PFQ       0.2013
     15 O6         13.6532  -10.4811   15.1419 O.3         1 PFQ      -0.2284
     16 C5         13.6351   -8.5855   13.9315 C.ar        1 PFQ       0.0757
     17 N9         13.5026   -6.4996   12.7488 N.pl3       1 PFQ      -0.2984
     18 C4         13.2636   -7.8356   12.7907 C.ar        1 PFQ       0.1260
     19 N3         12.6266   -8.4906   11.7784 N.ar        1 PFQ      -0.2686
     20 C17        16.0919   -6.8401   15.7078 C.ar        1 PFQ      -0.0609
     21 C1         14.1917   -8.2982   15.1838 C.2         1 PFQ       0.0223
     22 C18        14.6983   -7.0447   15.6019 C.ar        1 PFQ      -0.0309
     23 C23        13.2163   -4.2144   11.9281 C.3         1 PFQ       0.0648
     24 C8         12.5410   -5.4573   12.5485 C.3         1 PFQ       0.0533
     25 O24        12.2829   -3.4971   11.1075 O.3         1 PFQ      -0.3930
     26 H1         11.8960  -10.2781   11.0369 H           1 PFQ       0.1000
     27 H2         14.1588   -7.7827   18.0250 H           1 PFQ       0.0623
     28 H3         14.6845   -8.2789   20.3094 H           1 PFQ       0.0616
     29 H4         15.2882  -10.5340   20.9739 H           1 PFQ       0.0614
     30 H5         15.3812  -12.2956   19.3107 H           1 PFQ       0.0616
     31 H6         14.8638  -11.8292   17.0035 H           1 PFQ       0.0623
     32 H7         12.8059   -6.1068   15.8444 H           1 PFQ       0.0583
     33 H8         13.6887   -3.9451   16.4509 H           1 PFQ       0.0606
     34 H9         16.0886   -3.5957   16.5889 H           1 PFQ       0.0581
     35 H10        17.6113   -5.4311   16.1241 H           1 PFQ       0.0606
     36 H11        14.3544   -6.1949   13.0654 H           1 PFQ       0.1865
     37 H12        16.7479   -7.6025   15.5022 H           1 PFQ       0.0583
     38 H13        14.0786   -4.5139   11.3162 H           1 PFQ       0.0578
     39 H14        13.5579   -3.5515   12.7197 H           1 PFQ       0.0578
     40 H15        12.1523   -5.1791   13.5281 H           1 PFQ       0.0549
     41 H16        11.7078   -5.7777   11.9389 H           1 PFQ       0.0549
     42 H17        12.0756   -4.0969   10.3656 H           1 PFQ       0.2095
@<TRIPOS>BOND
     1    13     1  ar
     2    19     1  ar
     3     2     3   1
     4     2    15   1
     5    21     2   2
     6     3     4  ar
     7     3     8  ar
     8     4     5  ar
     9     5     6  ar
    10     7     6  ar
    11     8     7  ar
    12     9    10  ar
    13    22     9  ar
    14    10    11  ar
    15    12    11  ar
    16    20    12  ar
    17    14    13  ar
    18    14    15   1
    19    16    14  ar
    20    16    18  ar
    21    21    16   1
    22    18    17   1
    23    17    24   1
    24    18    19  ar
    25    22    20  ar
    26    21    22   1
    27    24    23   1
    28    23    25   1
    29     1    26   1
    30     4    27   1
    31     5    28   1
    32     6    29   1
    33     7    30   1
    34     8    31   1
    35     9    32   1
    36    10    33   1
    37    11    34   1
    38    12    35   1
    39    17    36   1
    40    20    37   1
    41    23    38   1
    42    23    39   1
    43    24    40   1
    44    24    41   1
    45    25    42   1
@<TRIPOS>SUBSTRUCTURE
     1  PFQ      1

