@<TRIPOS>MOLECULE
2brb_ligand_001
    42    45
SMALL
GAST_HUCK
****
This file was generated by PARSER (from files_GN.cpp)

@<TRIPOS>ATOM
      1 C2         11.3703   -0.3525   12.5223 C.ar        1 PFQ       0.0554
      2 C10        13.8035   -3.5280   14.5692 C.2         1 PFQ       0.1438
      3 C11        14.4811   -4.3393   15.5074 C.ar        1 PFQ       0.0192
      4 C12        15.8472   -4.1158   15.7824 C.ar        1 PFQ      -0.0510
      5 C13        16.5250   -4.9036   16.7302 C.ar        1 PFQ      -0.0615
      6 C14        15.8380   -5.9206   17.4176 C.ar        1 PFQ      -0.0622
      7 C15        14.4706   -6.1437   17.1606 C.ar        1 PFQ      -0.0615
      8 C16        13.7941   -5.3502   16.2123 C.ar        1 PFQ      -0.0510
      9 C19        14.8945   -5.4183   12.1618 C.ar        1 PFQ      -0.0609
     10 C20        15.8255   -6.1014   11.3518 C.ar        1 PFQ      -0.0660
     11 C21        16.9716   -5.4338   10.8788 C.ar        1 PFQ      -0.0660
     12 C22        17.1972   -4.0900   11.2266 C.ar        1 PFQ      -0.0660
     13 N1         11.5269   -0.9958   13.7065 N.ar        1 PFQ      -0.2620
     14 C6         12.4524   -1.9757   13.8217 C.ar        1 PFQ       0.2013
     15 O6         12.7839   -2.7007   14.9138 O.3         1 PFQ      -0.2284
     16 C5         13.2585   -2.3571   12.7426 C.ar        1 PFQ       0.0757
     17 N9         13.8682   -1.9788   10.4429 N.pl3       1 PFQ      -0.2984
     18 C4         13.0961   -1.6769   11.5139 C.ar        1 PFQ       0.1260
     19 N3         12.1527   -0.6913   11.4530 N.ar        1 PFQ      -0.2686
     20 C17        16.2696   -3.4056   12.0370 C.ar        1 PFQ      -0.0609
     21 C1         14.1211   -3.3465   13.2159 C.2         1 PFQ       0.0223
     22 C18        15.0975   -4.0554   12.4828 C.ar        1 PFQ      -0.0309
     23 C23        15.1801    0.0173    9.9278 C.3         1 PFQ       0.0648
     24 C8         14.2195   -1.0735    9.3985 C.3         1 PFQ       0.0533
     25 O24        15.5692    0.8871    8.8818 O.3         1 PFQ      -0.3930
     26 H1         10.6710    0.3781   12.4205 H           1 PFQ       0.1000
     27 H2         16.3578   -3.3644   15.3121 H           1 PFQ       0.0623
     28 H3         17.5172   -4.7411   16.9205 H           1 PFQ       0.0616
     29 H4         16.3289   -6.4937   18.1044 H           1 PFQ       0.0614
     30 H5         13.9739   -6.8823   17.6591 H           1 PFQ       0.0616
     31 H6         12.8083   -5.5350   16.0235 H           1 PFQ       0.0623
     32 H7         14.0611   -5.9141   12.4842 H           1 PFQ       0.0583
     33 H8         15.6643   -7.0795   11.0961 H           1 PFQ       0.0606
     34 H9         17.6359   -5.9268   10.2744 H           1 PFQ       0.0581
     35 H10        18.0296   -3.6076   10.8892 H           1 PFQ       0.0606
     36 H11        14.3375   -2.8319   10.4562 H           1 PFQ       0.1865
     37 H12        16.4417   -2.4281   12.2745 H           1 PFQ       0.0583
     38 H13        16.0734   -0.4400   10.3398 H           1 PFQ       0.0578
     39 H14        14.6938    0.6119   10.7065 H           1 PFQ       0.0578
     40 H15        13.3356   -0.6332    8.9371 H           1 PFQ       0.0549
     41 H16        14.7491   -1.6465    8.6357 H           1 PFQ       0.0549
     42 H17        14.7487    1.3530    8.6109 H           1 PFQ       0.2095
@<TRIPOS>BOND
     1    13     1  ar
     2    19     1  ar
     3     2     3   1
     4     2    15   1
     5    21     2   2
     6     3     4  ar
     7     3     8  ar
     8     4     5  ar
     9     5     6  ar
    10     7     6  ar
    11     8     7  ar
    12     9    10  ar
    13    22     9  ar
    14    10    11  ar
    15    12    11  ar
    16    20    12  ar
    17    14    13  ar
    18    14    15   1
    19    16    14  ar
    20    16    18  ar
    21    21    16   1
    22    18    17   1
    23    17    24   1
    24    18    19  ar
    25    22    20  ar
    26    21    22   1
    27    24    23   1
    28    23    25   1
    29     1    26   1
    30     4    27   1
    31     5    28   1
    32     6    29   1
    33     7    30   1
    34     8    31   1
    35     9    32   1
    36    10    33   1
    37    11    34   1
    38    12    35   1
    39    17    36   1
    40    20    37   1
    41    23    38   1
    42    23    39   1
    43    24    40   1
    44    24    41   1
    45    25    42   1
@<TRIPOS>SUBSTRUCTURE
     1  PFQ      1

