@<TRIPOS>MOLECULE
2cbj_ligand_043
    44    45
SMALL
GAST_HUCK
****
This file was generated by PARSER (from files_GN.cpp)

@<TRIPOS>ATOM
      1 CAH        28.5208   39.4929   23.6320 C.3         1 OAN       0.0258
      2 CAG        29.7743   40.2060   23.6220 C.2         1 OAN       0.1755
      3 OAN        30.0740   40.8604   24.6120 O.2         1 OAN      -0.3972
      4 NAI        30.5391   40.1167   22.5404 N.am        1 OAN      -0.2641
      5 CAB        31.8361   40.6570   22.2208 C.3         1 OAN       0.1483
      6 CAC        32.4098   41.8241   23.1064 C.3         1 OAN       0.1223
      7 OAJ        32.7880   41.3616   24.4031 O.3         1 OAN      -0.3842
      8 CAD        33.6756   42.4435   22.4428 C.3         1 OAN       0.1187
      9 OAK        34.1660   43.5142   23.2311 O.3         1 OAN      -0.3859
     10 CAE        33.3316   42.9113   20.9793 C.3         1 OAN       0.1375
     11 CAF        34.4771   42.7784   19.9293 C.3         1 OAN       0.0780
     12 OAM        35.5046   41.8586   20.2793 O.3         1 OAN      -0.3919
     13 OAL        32.0797   42.3405   20.4923 O.3         1 OAN      -0.2871
     14 CAA        31.8558   41.0606   20.8129 C.2         1 OAN       0.1893
     15 NAY        31.6838   40.2025   19.8768 N.2         1 OAN      -0.1541
     16 OAQ        31.8091   40.5175   18.6570 O.3         1 OAN      -0.1506
     17 CAP        31.8307   39.6676   17.6071 C.2         1 OAN       0.3788
     18 OAR        31.6648   38.3379   17.7976 O.2         1 OAN      -0.3643
     19 NAO        32.1303   40.2269   16.4097 N.am        1 OAN      -0.2057
     20 CAS        32.3459   39.5802   15.2322 C.ar        1 OAN       0.0683
     21 CAT        31.4281   38.6679   14.6588 C.ar        1 OAN      -0.0414
     22 CAU        31.7012   38.0660   13.4193 C.ar        1 OAN      -0.0756
     23 CAV        32.9001   38.3617   12.7422 C.ar        1 OAN      -0.0773
     24 CAW        33.8202   39.2647   13.3013 C.ar        1 OAN      -0.0756
     25 CAX        33.5357   39.8828   14.5298 C.ar        1 OAN      -0.0414
     26 H1         28.7040   38.4223   23.5245 H           1 OAN       0.0467
     27 H2         27.8942   39.8220   22.7940 H           1 OAN       0.0467
     28 H3         27.9578   39.6528   24.5528 H           1 OAN       0.0467
     29 H4         30.1654   39.5460   21.8410 H           1 OAN       0.1888
     30 H5         32.5320   39.8220   22.3132 H           1 OAN       0.0821
     31 H6         31.6614   42.5987   23.2181 H           1 OAN       0.0672
     32 H7         32.1787   40.6317   24.6162 H           1 OAN       0.2103
     33 H8         34.4394   41.6584   22.4265 H           1 OAN       0.0653
     34 H9         35.1041   43.6566   22.9408 H           1 OAN       0.2100
     35 H10        33.1050   43.9765   21.0402 H           1 OAN       0.0708
     36 H11        34.9296   43.7435   19.7416 H           1 OAN       0.0588
     37 H12        34.0542   42.4349   18.9791 H           1 OAN       0.0588
     38 H13        35.9568   42.2430   21.0487 H           1 OAN       0.2095
     39 H14        32.3514   41.1688   16.4332 H           1 OAN       0.2276
     40 H15        30.5482   38.4542   15.1251 H           1 OAN       0.0501
     41 H16        31.0295   37.4126   13.0101 H           1 OAN       0.0577
     42 H17        33.0966   37.9223   11.8385 H           1 OAN       0.0487
     43 H18        34.6928   39.4717   12.8142 H           1 OAN       0.0577
     44 H19        34.2179   40.5400   14.9282 H           1 OAN       0.0501
@<TRIPOS>BOND
     1     1     2   1
     2     2     3   2
     3     2     4  am
     4     4     5   1
     5     5     6   1
     6     5    14   1
     7     6     7   1
     8     6     8   1
     9     8     9   1
    10     8    10   1
    11    10    11   1
    12    10    13   1
    13    11    12   1
    14    13    14   1
    15    14    15   2
    16    15    16   1
    17    16    17   1
    18    17    18   2
    19    17    19  am
    20    19    20   1
    21    20    21  ar
    22    20    25  ar
    23    21    22  ar
    24    22    23  ar
    25    23    24  ar
    26    24    25  ar
    27     1    26   1
    28     1    27   1
    29     1    28   1
    30     4    29   1
    31     5    30   1
    32     6    31   1
    33     7    32   1
    34     8    33   1
    35     9    34   1
    36    10    35   1
    37    11    36   1
    38    11    37   1
    39    12    38   1
    40    19    39   1
    41    21    40   1
    42    22    41   1
    43    23    42   1
    44    24    43   1
    45    25    44   1
@<TRIPOS>SUBSTRUCTURE
     1  OAN      1

