@<TRIPOS>MOLECULE
2cbj_ligand_044
    44    45
SMALL
GAST_HUCK
****
This file was generated by PARSER (from files_GN.cpp)

@<TRIPOS>ATOM
      1 CAH        35.6000   41.5312   21.4184 C.3         1 OAN       0.0258
      2 CAG        34.3069   40.8921   21.4793 C.2         1 OAN       0.1755
      3 OAN        34.1877   39.8591   22.1280 O.2         1 OAN      -0.3972
      4 NAI        33.2787   41.4484   20.8492 N.am        1 OAN      -0.2641
      5 CAB        31.9248   40.9708   20.8124 C.3         1 OAN       0.1483
      6 CAC        31.4820   40.6676   19.3469 C.3         1 OAN       0.1223
      7 OAJ        32.1262   39.4922   18.8562 O.3         1 OAN      -0.3842
      8 CAD        29.9384   40.4818   19.2940 C.3         1 OAN       0.1187
      9 OAK        29.4693   40.3236   17.9558 O.3         1 OAN      -0.3859
     10 CAE        29.2103   41.6900   19.9840 C.3         1 OAN       0.1375
     11 CAF        28.0458   41.2378   20.9106 C.3         1 OAN       0.0780
     12 OAM        28.4903   40.3873   21.9654 O.3         1 OAN      -0.3919
     13 OAL        30.1159   42.5948   20.6710 O.3         1 OAN      -0.2871
     14 CAA        31.0517   41.9730   21.4119 C.2         1 OAN       0.1893
     15 NAY        30.9803   42.0497   22.6868 N.2         1 OAN      -0.1541
     16 OAQ        30.2118   42.8521   23.3025 O.3         1 OAN      -0.1506
     17 CAP        29.7452   42.5913   24.5463 C.2         1 OAN       0.3788
     18 OAR        29.8930   41.3563   25.0871 O.2         1 OAN      -0.3643
     19 NAO        28.9937   43.5545   25.1158 N.am        1 OAN      -0.2057
     20 CAS        28.2874   43.4799   26.2782 C.ar        1 OAN       0.0683
     21 CAT        27.0011   44.0654   26.2933 C.ar        1 OAN      -0.0414
     22 CAU        26.1524   43.9120   27.4014 C.ar        1 OAN      -0.0756
     23 CAV        26.6188   43.2399   28.5420 C.ar        1 OAN      -0.0773
     24 CAW        27.9410   42.7658   28.5882 C.ar        1 OAN      -0.0756
     25 CAX        28.7702   42.8783   27.4621 C.ar        1 OAN      -0.0414
     26 H1         35.5410   42.5165   21.8827 H           1 OAN       0.0467
     27 H2         35.9110   41.6455   20.3787 H           1 OAN       0.0467
     28 H3         36.3614   40.9498   21.9449 H           1 OAN       0.0467
     29 H4         33.4531   42.2646   20.3504 H           1 OAN       0.1888
     30 H5         31.8069   40.0415   21.3832 H           1 OAN       0.0821
     31 H6         31.7632   41.4997   18.6957 H           1 OAN       0.0672
     32 H7         33.0866   39.6359   18.9949 H           1 OAN       0.2103
     33 H8         29.7086   39.5544   19.8256 H           1 OAN       0.0653
     34 H9         29.7940   39.4460   17.6636 H           1 OAN       0.2100
     35 H10        28.7532   42.3046   19.2019 H           1 OAN       0.0708
     36 H11        27.2943   40.7004   20.3272 H           1 OAN       0.0588
     37 H12        27.5717   42.1154   21.3524 H           1 OAN       0.0588
     38 H13        27.8190   40.4915   22.6699 H           1 OAN       0.2095
     39 H14        28.8428   44.3338   24.5614 H           1 OAN       0.2276
     40 H15        26.6592   44.5929   25.4853 H           1 OAN       0.0501
     41 H16        25.2062   44.2954   27.3793 H           1 OAN       0.0577
     42 H17        26.0093   43.1278   29.3461 H           1 OAN       0.0487
     43 H18        28.3064   42.3124   29.4236 H           1 OAN       0.0577
     44 H19        29.7215   42.5252   27.5120 H           1 OAN       0.0501
@<TRIPOS>BOND
     1     1     2   1
     2     2     3   2
     3     2     4  am
     4     4     5   1
     5     5     6   1
     6     5    14   1
     7     6     7   1
     8     6     8   1
     9     8     9   1
    10     8    10   1
    11    10    11   1
    12    10    13   1
    13    11    12   1
    14    13    14   1
    15    14    15   2
    16    15    16   1
    17    16    17   1
    18    17    18   2
    19    17    19  am
    20    19    20   1
    21    20    21  ar
    22    20    25  ar
    23    21    22  ar
    24    22    23  ar
    25    23    24  ar
    26    24    25  ar
    27     1    26   1
    28     1    27   1
    29     1    28   1
    30     4    29   1
    31     5    30   1
    32     6    31   1
    33     7    32   1
    34     8    33   1
    35     9    34   1
    36    10    35   1
    37    11    36   1
    38    11    37   1
    39    12    38   1
    40    19    39   1
    41    21    40   1
    42    22    41   1
    43    23    42   1
    44    24    43   1
    45    25    44   1
@<TRIPOS>SUBSTRUCTURE
     1  OAN      1

