@<TRIPOS>MOLECULE
2cbj_ligand_041
    44    45
SMALL
GAST_HUCK
****
This file was generated by PARSER (from files_GN.cpp)

@<TRIPOS>ATOM
      1 CAH        30.5628   45.0897   23.4266 C.3         1 OAN       0.0258
      2 CAG        31.0942   44.1273   22.4996 C.2         1 OAN       0.1755
      3 OAN        32.1777   44.3883   21.9953 O.2         1 OAN      -0.3972
      4 NAI        30.4123   43.0124   22.2740 N.am        1 OAN      -0.2641
      5 CAB        30.7630   41.8489   21.5034 C.3         1 OAN       0.1483
      6 CAC        32.2813   41.4704   21.4342 C.3         1 OAN       0.1223
      7 OAJ        32.8055   41.2088   22.7383 O.3         1 OAN      -0.3842
      8 CAD        32.5168   40.2245   20.5411 C.3         1 OAN       0.1187
      9 OAK        33.9150   39.9632   20.4291 O.3         1 OAN      -0.3859
     10 CAE        31.8248   40.4691   19.1664 C.3         1 OAN       0.1375
     11 CAF        31.9190   39.2643   18.1990 C.3         1 OAN       0.0780
     12 OAM        31.3808   39.6127   16.9266 O.3         1 OAN      -0.3919
     13 OAL        30.4246   40.7332   19.4001 O.3         1 OAN      -0.2871
     14 CAA        30.1637   41.8043   20.1705 C.2         1 OAN       0.1893
     15 NAY        29.3500   42.6965   19.7240 N.2         1 OAN      -0.1541
     16 OAQ        28.6180   42.6774   18.6578 O.3         1 OAN      -0.1506
     17 CAP        28.0255   41.6390   18.0000 C.2         1 OAN       0.3788
     18 OAR        27.9409   40.4165   18.5788 O.2         1 OAN      -0.3643
     19 NAO        27.4361   41.8616   16.8040 N.am        1 OAN      -0.2057
     20 CAS        26.9354   40.8913   15.9824 C.ar        1 OAN       0.0683
     21 CAT        25.7255   41.1402   15.2994 C.ar        1 OAN      -0.0414
     22 CAU        25.1675   40.1586   14.4564 C.ar        1 OAN      -0.0756
     23 CAV        25.8279   38.9316   14.2637 C.ar        1 OAN      -0.0773
     24 CAW        27.0534   38.6888   14.9053 C.ar        1 OAN      -0.0756
     25 CAX        27.6020   39.6617   15.7592 C.ar        1 OAN      -0.0414
     26 H1         29.5591   44.8173   23.7473 H           1 OAN       0.0467
     27 H2         30.5275   46.0804   22.9718 H           1 OAN       0.0467
     28 H3         31.2068   45.1182   24.3019 H           1 OAN       0.0467
     29 H4         29.5449   42.9670   22.7166 H           1 OAN       0.1888
     30 H5         30.2851   41.0293   22.0478 H           1 OAN       0.0821
     31 H6         32.8526   42.2864   20.9864 H           1 OAN       0.0672
     32 H7         32.7399   42.0568   23.2239 H           1 OAN       0.2103
     33 H8         32.0529   39.3569   21.0207 H           1 OAN       0.0653
     34 H9         34.3420   40.8420   20.3236 H           1 OAN       0.2100
     35 H10        32.2840   41.3299   18.6685 H           1 OAN       0.0708
     36 H11        31.3547   38.4129   18.5910 H           1 OAN       0.0588
     37 H12        32.9580   38.9689   18.0627 H           1 OAN       0.0588
     38 H13        31.5296   38.8243   16.3592 H           1 OAN       0.2095
     39 H14        27.3356   42.7869   16.5222 H           1 OAN       0.2276
     40 H15        25.2332   42.0263   15.4320 H           1 OAN       0.0501
     41 H16        24.2794   40.3393   13.9819 H           1 OAN       0.0577
     42 H17        25.4225   38.2207   13.6517 H           1 OAN       0.0487
     43 H18        27.5452   37.8036   14.7544 H           1 OAN       0.0577
     44 H19        28.5026   39.4697   16.2071 H           1 OAN       0.0501
@<TRIPOS>BOND
     1     1     2   1
     2     2     3   2
     3     2     4  am
     4     4     5   1
     5     5     6   1
     6     5    14   1
     7     6     7   1
     8     6     8   1
     9     8     9   1
    10     8    10   1
    11    10    11   1
    12    10    13   1
    13    11    12   1
    14    13    14   1
    15    14    15   2
    16    15    16   1
    17    16    17   1
    18    17    18   2
    19    17    19  am
    20    19    20   1
    21    20    21  ar
    22    20    25  ar
    23    21    22  ar
    24    22    23  ar
    25    23    24  ar
    26    24    25  ar
    27     1    26   1
    28     1    27   1
    29     1    28   1
    30     4    29   1
    31     5    30   1
    32     6    31   1
    33     7    32   1
    34     8    33   1
    35     9    34   1
    36    10    35   1
    37    11    36   1
    38    11    37   1
    39    12    38   1
    40    19    39   1
    41    21    40   1
    42    22    41   1
    43    23    42   1
    44    24    43   1
    45    25    44   1
@<TRIPOS>SUBSTRUCTURE
     1  OAN      1

