@<TRIPOS>MOLECULE
2cbj_ligand_031
    44    45
SMALL
GAST_HUCK
****
This file was generated by PARSER (from files_GN.cpp)

@<TRIPOS>ATOM
      1 CAH        32.1363   40.9431   16.0665 C.3         1 OAN       0.0258
      2 CAG        31.6513   40.2560   17.2400 C.2         1 OAN       0.1755
      3 OAN        32.2133   39.2295   17.6117 O.2         1 OAN      -0.3972
      4 NAI        30.5985   40.7459   17.8946 N.am        1 OAN      -0.2641
      5 CAB        29.9969   40.1712   19.0702 C.3         1 OAN       0.1483
      6 CAC        28.6365   40.8566   19.4148 C.3         1 OAN       0.1223
      7 OAJ        27.6891   40.6205   18.3714 O.3         1 OAN      -0.3842
      8 CAD        28.0300   40.3437   20.7585 C.3         1 OAN       0.1187
      9 OAK        26.9474   41.1951   21.1364 O.3         1 OAN      -0.3859
     10 CAE        29.1264   40.2829   21.8725 C.3         1 OAN       0.1375
     11 CAF        28.7192   39.4469   23.1109 C.3         1 OAN       0.0780
     12 OAM        29.8554   39.1674   23.9257 O.3         1 OAN      -0.3919
     13 OAL        30.3292   39.6657   21.3701 O.3         1 OAN      -0.2871
     14 CAA        30.8251   40.2391   20.2687 C.2         1 OAN       0.1893
     15 NAY        31.9824   40.7917   20.3161 N.2         1 OAN      -0.1541
     16 OAQ        32.6385   40.8669   21.4043 O.3         1 OAN      -0.1506
     17 CAP        33.9298   41.2487   21.5155 C.2         1 OAN       0.3788
     18 OAR        34.6676   41.5264   20.4147 O.2         1 OAN      -0.3643
     19 NAO        34.4469   41.2338   22.7601 N.am        1 OAN      -0.2057
     20 CAS        35.7749   41.2600   23.0120 C.ar        1 OAN       0.0683
     21 CAT        36.5388   42.4429   22.9145 C.ar        1 OAN      -0.0414
     22 CAU        37.9163   42.4190   23.1987 C.ar        1 OAN      -0.0756
     23 CAV        38.5316   41.2150   23.5924 C.ar        1 OAN      -0.0773
     24 CAW        37.7778   40.0327   23.6772 C.ar        1 OAN      -0.0756
     25 CAX        36.4000   40.0611   23.3995 C.ar        1 OAN      -0.0414
     26 H1         31.3556   40.9802   15.3015 H           1 OAN       0.0467
     27 H2         33.0107   40.4360   15.6452 H           1 OAN       0.0467
     28 H3         32.4241   41.9600   16.3354 H           1 OAN       0.0467
     29 H4         30.1788   41.5416   17.5250 H           1 OAN       0.1888
     30 H5         29.7942   39.1180   18.8641 H           1 OAN       0.0821
     31 H6         28.7989   41.9371   19.4928 H           1 OAN       0.0672
     32 H7         28.0144   41.1337   17.5983 H           1 OAN       0.2103
     33 H8         27.6275   39.3399   20.6037 H           1 OAN       0.0653
     34 H9         26.7499   40.9709   22.0748 H           1 OAN       0.2100
     35 H10        29.3556   41.3009   22.2113 H           1 OAN       0.0708
     36 H11        28.2915   38.4947   22.7853 H           1 OAN       0.0588
     37 H12        27.9847   39.9803   23.7131 H           1 OAN       0.0588
     38 H13        29.5513   38.4959   24.5674 H           1 OAN       0.2095
     39 H14        33.8587   40.9559   23.4828 H           1 OAN       0.2276
     40 H15        36.0865   43.3285   22.6767 H           1 OAN       0.0501
     41 H16        38.4611   43.2794   23.1522 H           1 OAN       0.0577
     42 H17        39.5215   41.2013   23.8476 H           1 OAN       0.0487
     43 H18        38.2231   39.1567   23.9616 H           1 OAN       0.0577
     44 H19        35.8528   39.2033   23.4794 H           1 OAN       0.0501
@<TRIPOS>BOND
     1     1     2   1
     2     2     3   2
     3     2     4  am
     4     4     5   1
     5     5     6   1
     6     5    14   1
     7     6     7   1
     8     6     8   1
     9     8     9   1
    10     8    10   1
    11    10    11   1
    12    10    13   1
    13    11    12   1
    14    13    14   1
    15    14    15   2
    16    15    16   1
    17    16    17   1
    18    17    18   2
    19    17    19  am
    20    19    20   1
    21    20    21  ar
    22    20    25  ar
    23    21    22  ar
    24    22    23  ar
    25    23    24  ar
    26    24    25  ar
    27     1    26   1
    28     1    27   1
    29     1    28   1
    30     4    29   1
    31     5    30   1
    32     6    31   1
    33     7    32   1
    34     8    33   1
    35     9    34   1
    36    10    35   1
    37    11    36   1
    38    11    37   1
    39    12    38   1
    40    19    39   1
    41    21    40   1
    42    22    41   1
    43    23    42   1
    44    24    43   1
    45    25    44   1
@<TRIPOS>SUBSTRUCTURE
     1  OAN      1

