@<TRIPOS>MOLECULE
2cbj_ligand_026
    44    45
SMALL
GAST_HUCK
****
This file was generated by PARSER (from files_GN.cpp)

@<TRIPOS>ATOM
      1 CAH        30.7375   44.0309   23.6804 C.3         1 OAN       0.0258
      2 CAG        30.8211   43.2173   22.4939 C.2         1 OAN       0.1755
      3 OAN        31.8324   43.3614   21.8214 O.2         1 OAN      -0.3972
      4 NAI        29.8526   42.3535   22.2062 N.am        1 OAN      -0.2641
      5 CAB        29.7439   41.3553   21.1688 C.3         1 OAN       0.1483
      6 CAC        31.0484   40.8780   20.4365 C.3         1 OAN       0.1223
      7 OAJ        31.9376   40.2434   21.3608 O.3         1 OAN      -0.3842
      8 CAD        30.7535   39.8871   19.2775 C.3         1 OAN       0.1187
      9 OAK        31.9478   39.6196   18.5455 O.3         1 OAN      -0.3859
     10 CAE        29.6472   40.4902   18.3647 C.3         1 OAN       0.1375
     11 CAF        29.2485   39.5421   17.2059 C.3         1 OAN       0.0780
     12 OAM        27.8797   39.7326   16.8414 O.3         1 OAN      -0.3919
     13 OAL        28.4946   40.7771   19.1874 O.3         1 OAN      -0.2871
     14 CAA        28.7295   41.6806   20.1649 C.2         1 OAN       0.1893
     15 NAY        28.0953   42.8020   20.1496 N.2         1 OAN      -0.1541
     16 OAQ        27.1013   43.1994   19.4342 O.3         1 OAN      -0.1506
     17 CAP        26.0356   42.5240   18.9216 C.2         1 OAN       0.3788
     18 OAR        25.7944   41.2390   19.2660 O.2         1 OAN      -0.3643
     19 NAO        25.2354   43.1866   18.0562 N.am        1 OAN      -0.2057
     20 CAS        24.1424   42.6697   17.4267 C.ar        1 OAN       0.0683
     21 CAT        23.1567   41.8941   18.0861 C.ar        1 OAN      -0.0414
     22 CAU        22.0539   41.3808   17.3768 C.ar        1 OAN      -0.0756
     23 CAV        21.9138   41.6478   16.0049 C.ar        1 OAN      -0.0773
     24 CAW        22.8745   42.4318   15.3414 C.ar        1 OAN      -0.0756
     25 CAX        23.9769   42.9483   16.0517 C.ar        1 OAN      -0.0414
     26 H1         29.8329   43.8345   24.2585 H           1 OAN       0.0467
     27 H2         30.7473   45.0881   23.4063 H           1 OAN       0.0467
     28 H3         31.5963   43.8165   24.3210 H           1 OAN       0.0467
     29 H4         29.0923   42.3826   22.8090 H           1 OAN       0.1888
     30 H5         29.3539   40.4702   21.6783 H           1 OAN       0.0821
     31 H6         31.5614   41.7370   19.9970 H           1 OAN       0.0672
     32 H7         32.2105   40.9467   21.9929 H           1 OAN       0.2103
     33 H8         30.3981   38.9428   19.6992 H           1 OAN       0.0653
     34 H9         31.7921   38.7447   18.1275 H           1 OAN       0.2100
     35 H10        30.0106   41.4183   17.9087 H           1 OAN       0.0708
     36 H11        29.3902   38.4948   17.4863 H           1 OAN       0.0588
     37 H12        29.8646   39.7407   16.3231 H           1 OAN       0.0588
     38 H13        27.6791   39.0085   16.2068 H           1 OAN       0.2095
     39 H14        25.5385   44.0614   17.7673 H           1 OAN       0.2276
     40 H15        23.2232   41.7112   19.0896 H           1 OAN       0.0501
     41 H16        21.3476   40.8255   17.8665 H           1 OAN       0.0577
     42 H17        21.1118   41.2800   15.4912 H           1 OAN       0.0487
     43 H18        22.7700   42.6339   14.3449 H           1 OAN       0.0577
     44 H19        24.6729   43.5114   15.5508 H           1 OAN       0.0501
@<TRIPOS>BOND
     1     1     2   1
     2     2     3   2
     3     2     4  am
     4     4     5   1
     5     5     6   1
     6     5    14   1
     7     6     7   1
     8     6     8   1
     9     8     9   1
    10     8    10   1
    11    10    11   1
    12    10    13   1
    13    11    12   1
    14    13    14   1
    15    14    15   2
    16    15    16   1
    17    16    17   1
    18    17    18   2
    19    17    19  am
    20    19    20   1
    21    20    21  ar
    22    20    25  ar
    23    21    22  ar
    24    22    23  ar
    25    23    24  ar
    26    24    25  ar
    27     1    26   1
    28     1    27   1
    29     1    28   1
    30     4    29   1
    31     5    30   1
    32     6    31   1
    33     7    32   1
    34     8    33   1
    35     9    34   1
    36    10    35   1
    37    11    36   1
    38    11    37   1
    39    12    38   1
    40    19    39   1
    41    21    40   1
    42    22    41   1
    43    23    42   1
    44    24    43   1
    45    25    44   1
@<TRIPOS>SUBSTRUCTURE
     1  OAN      1

