@<TRIPOS>MOLECULE
2cbj_ligand_023
    44    45
SMALL
GAST_HUCK
****
This file was generated by PARSER (from files_GN.cpp)

@<TRIPOS>ATOM
      1 CAH        31.0373   38.5280   17.6245 C.3         1 OAN       0.0258
      2 CAG        31.3252   39.6264   18.5143 C.2         1 OAN       0.1755
      3 OAN        32.0644   40.5168   18.1127 O.2         1 OAN      -0.3972
      4 NAI        30.8059   39.6582   19.7367 N.am        1 OAN      -0.2641
      5 CAB        31.0371   40.6838   20.7208 C.3         1 OAN       0.1483
      6 CAC        30.3983   40.2950   22.0875 C.3         1 OAN       0.1223
      7 OAJ        30.9890   39.0882   22.5792 O.3         1 OAN      -0.3842
      8 CAD        30.5555   41.4380   23.1447 C.3         1 OAN       0.1187
      9 OAK        29.7356   41.1630   24.2846 O.3         1 OAN      -0.3859
     10 CAE        30.1822   42.8218   22.5145 C.3         1 OAN       0.1375
     11 CAF        30.5612   44.0177   23.4268 C.3         1 OAN       0.0780
     12 OAM        31.9005   44.4550   23.2347 O.3         1 OAN      -0.3919
     13 OAL        30.8129   43.0087   21.2206 O.3         1 OAN      -0.2871
     14 CAA        30.5275   42.0014   20.3686 C.2         1 OAN       0.1893
     15 NAY        29.6266   42.1563   19.4703 N.2         1 OAN      -0.1541
     16 OAQ        29.1483   43.3047   19.1823 O.3         1 OAN      -0.1506
     17 CAP        27.8784   43.4935   18.7264 C.2         1 OAN       0.3788
     18 OAR        26.9981   42.4504   18.7091 O.2         1 OAN      -0.3643
     19 NAO        27.5296   44.7791   18.4577 N.am        1 OAN      -0.2057
     20 CAS        26.3121   45.3339   18.1518 C.ar        1 OAN       0.0683
     21 CAT        25.2498   44.6919   17.4690 C.ar        1 OAN      -0.0414
     22 CAU        24.0233   45.3539   17.2816 C.ar        1 OAN      -0.0756
     23 CAV        23.8538   46.6662   17.7562 C.ar        1 OAN      -0.0773
     24 CAW        24.9114   47.3183   18.4097 C.ar        1 OAN      -0.0756
     25 CAX        26.1310   46.6585   18.6040 C.ar        1 OAN      -0.0414
     26 H1         30.3807   37.7916   18.0891 H           1 OAN       0.0467
     27 H2         31.9687   38.0335   17.3456 H           1 OAN       0.0467
     28 H3         30.5501   38.9044   16.7229 H           1 OAN       0.0467
     29 H4         30.2456   38.9155   19.9994 H           1 OAN       0.1888
     30 H5         32.1219   40.7719   20.8655 H           1 OAN       0.0821
     31 H6         29.3305   40.1037   21.9296 H           1 OAN       0.0672
     32 H7         30.4274   38.8289   23.3555 H           1 OAN       0.2103
     33 H8         31.5965   41.4609   23.4829 H           1 OAN       0.0653
     34 H9         28.8165   41.3873   24.0038 H           1 OAN       0.2100
     35 H10        29.0951   42.8475   22.3768 H           1 OAN       0.0708
     36 H11        30.4189   43.7461   24.4699 H           1 OAN       0.0588
     37 H12        29.9093   44.8620   23.2070 H           1 OAN       0.0588
     38 H13        32.4734   43.6961   23.4768 H           1 OAN       0.2095
     39 H14        28.2637   45.4172   18.5620 H           1 OAN       0.2276
     40 H15        25.3513   43.7490   17.0993 H           1 OAN       0.0501
     41 H16        23.2647   44.8827   16.7944 H           1 OAN       0.0577
     42 H17        22.9533   47.1387   17.6293 H           1 OAN       0.0487
     43 H18        24.7861   48.2733   18.7465 H           1 OAN       0.0577
     44 H19        26.8809   47.1505   19.0905 H           1 OAN       0.0501
@<TRIPOS>BOND
     1     1     2   1
     2     2     3   2
     3     2     4  am
     4     4     5   1
     5     5     6   1
     6     5    14   1
     7     6     7   1
     8     6     8   1
     9     8     9   1
    10     8    10   1
    11    10    11   1
    12    10    13   1
    13    11    12   1
    14    13    14   1
    15    14    15   2
    16    15    16   1
    17    16    17   1
    18    17    18   2
    19    17    19  am
    20    19    20   1
    21    20    21  ar
    22    20    25  ar
    23    21    22  ar
    24    22    23  ar
    25    23    24  ar
    26    24    25  ar
    27     1    26   1
    28     1    27   1
    29     1    28   1
    30     4    29   1
    31     5    30   1
    32     6    31   1
    33     7    32   1
    34     8    33   1
    35     9    34   1
    36    10    35   1
    37    11    36   1
    38    11    37   1
    39    12    38   1
    40    19    39   1
    41    21    40   1
    42    22    41   1
    43    23    42   1
    44    24    43   1
    45    25    44   1
@<TRIPOS>SUBSTRUCTURE
     1  OAN      1

