@<TRIPOS>MOLECULE
2cbj_ligand_022
    44    45
SMALL
GAST_HUCK
****
This file was generated by PARSER (from files_GN.cpp)

@<TRIPOS>ATOM
      1 CAH        29.5666   40.2823   23.7770 C.3         1 OAN       0.0258
      2 CAG        29.2569   40.4034   22.3705 C.2         1 OAN       0.1755
      3 OAN        29.3222   39.3918   21.6788 O.2         1 OAN      -0.3972
      4 NAI        28.9502   41.5874   21.8519 N.am        1 OAN      -0.2641
      5 CAB        28.5979   41.8827   20.4837 C.3         1 OAN       0.1483
      6 CAC        27.1545   41.3856   20.1544 C.3         1 OAN       0.1223
      7 OAJ        26.2008   41.9737   21.0330 O.3         1 OAN      -0.3842
      8 CAD        26.7712   41.7284   18.6900 C.3         1 OAN       0.1187
      9 OAK        25.5128   41.1429   18.3564 O.3         1 OAN      -0.3859
     10 CAE        27.8791   41.1835   17.7417 C.3         1 OAN       0.1375
     11 CAF        27.6813   41.6023   16.2643 C.3         1 OAN       0.0780
     12 OAM        27.7405   43.0166   16.0971 O.3         1 OAN      -0.3919
     13 OAL        29.2012   41.6144   18.1541 O.3         1 OAN      -0.2871
     14 CAA        29.5195   41.4028   19.4501 C.2         1 OAN       0.1893
     15 NAY        30.6909   40.9559   19.7394 N.2         1 OAN      -0.1541
     16 OAQ        31.5524   40.4006   18.9577 O.3         1 OAN      -0.1506
     17 CAP        31.3341   39.4298   18.0256 C.2         1 OAN       0.3788
     18 OAR        30.1177   38.8363   17.9489 O.2         1 OAN      -0.3643
     19 NAO        32.3544   39.0903   17.2027 N.am        1 OAN      -0.2057
     20 CAS        32.3476   38.1264   16.2309 C.ar        1 OAN       0.0683
     21 CAT        33.1478   38.3443   15.0867 C.ar        1 OAN      -0.0414
     22 CAU        33.1855   37.4020   14.0427 C.ar        1 OAN      -0.0756
     23 CAV        32.4309   36.2193   14.1340 C.ar        1 OAN      -0.0773
     24 CAW        31.6586   35.9676   15.2810 C.ar        1 OAN      -0.0756
     25 CAX        31.6247   36.9091   16.3255 C.ar        1 OAN      -0.0414
     26 H1         29.4072   41.2283   24.3040 H           1 OAN       0.0467
     27 H2         30.6127   39.9892   23.8986 H           1 OAN       0.0467
     28 H3         28.9297   39.5199   24.2329 H           1 OAN       0.0467
     29 H4         28.9067   42.3324   22.4812 H           1 OAN       0.1888
     30 H5         28.5905   42.9743   20.4038 H           1 OAN       0.0821
     31 H6         27.1019   40.2989   20.2748 H           1 OAN       0.0672
     32 H7         26.3654   41.5533   21.9014 H           1 OAN       0.2103
     33 H8         26.6940   42.8144   18.5826 H           1 OAN       0.0653
     34 H9         24.8714   41.5292   18.9870 H           1 OAN       0.2100
     35 H10        27.8389   40.0895   17.7705 H           1 OAN       0.0708
     36 H11        26.7144   41.2510   15.8997 H           1 OAN       0.0588
     37 H12        28.4615   41.1489   15.6477 H           1 OAN       0.0588
     38 H13        28.6526   43.2702   16.3528 H           1 OAN       0.2095
     39 H14        33.1462   39.6492   17.2498 H           1 OAN       0.2276
     40 H15        33.6978   39.2034   15.0007 H           1 OAN       0.0501
     41 H16        33.7571   37.5786   13.2154 H           1 OAN       0.0577
     42 H17        32.4547   35.5360   13.3754 H           1 OAN       0.0487
     43 H18        31.1253   35.0988   15.3596 H           1 OAN       0.0577
     44 H19        31.0900   36.6829   17.1664 H           1 OAN       0.0501
@<TRIPOS>BOND
     1     1     2   1
     2     2     3   2
     3     2     4  am
     4     4     5   1
     5     5     6   1
     6     5    14   1
     7     6     7   1
     8     6     8   1
     9     8     9   1
    10     8    10   1
    11    10    11   1
    12    10    13   1
    13    11    12   1
    14    13    14   1
    15    14    15   2
    16    15    16   1
    17    16    17   1
    18    17    18   2
    19    17    19  am
    20    19    20   1
    21    20    21  ar
    22    20    25  ar
    23    21    22  ar
    24    22    23  ar
    25    23    24  ar
    26    24    25  ar
    27     1    26   1
    28     1    27   1
    29     1    28   1
    30     4    29   1
    31     5    30   1
    32     6    31   1
    33     7    32   1
    34     8    33   1
    35     9    34   1
    36    10    35   1
    37    11    36   1
    38    11    37   1
    39    12    38   1
    40    19    39   1
    41    21    40   1
    42    22    41   1
    43    23    42   1
    44    24    43   1
    45    25    44   1
@<TRIPOS>SUBSTRUCTURE
     1  OAN      1

