@<TRIPOS>MOLECULE
2cbj_ligand_010
    44    45
SMALL
GAST_HUCK
****
This file was generated by PARSER (from files_GN.cpp)

@<TRIPOS>ATOM
      1 CAH        26.0393   41.9608   20.0165 C.3         1 OAN       0.0258
      2 CAG        27.3956   41.4737   19.9310 C.2         1 OAN       0.1755
      3 OAN        27.8500   41.1966   18.8229 O.2         1 OAN      -0.3972
      4 NAI        28.1716   41.4434   21.0074 N.am        1 OAN      -0.2641
      5 CAB        29.5608   41.0769   21.0414 C.3         1 OAN       0.1483
      6 CAC        30.2051   41.4205   22.4154 C.3         1 OAN       0.1223
      7 OAJ        29.5233   40.7593   23.4810 O.3         1 OAN      -0.3842
      8 CAD        31.7138   41.0386   22.4302 C.3         1 OAN       0.1187
      9 OAK        32.3237   41.5141   23.6350 O.3         1 OAN      -0.3859
     10 CAE        32.4214   41.6566   21.1803 C.3         1 OAN       0.1375
     11 CAF        33.8741   41.1524   21.0018 C.3         1 OAN       0.0780
     12 OAM        34.5491   40.9648   22.2446 O.3         1 OAN      -0.3919
     13 OAL        31.7015   41.3379   19.9601 O.3         1 OAN      -0.2871
     14 CAA        30.3935   41.6752   20.0014 C.2         1 OAN       0.1893
     15 NAY        29.9059   42.5197   19.1621 N.2         1 OAN      -0.1541
     16 OAQ        30.5391   42.9395   18.1312 O.3         1 OAN      -0.1506
     17 CAP        30.2293   44.0674   17.4455 C.2         1 OAN       0.3788
     18 OAR        29.2612   44.9215   17.8848 O.2         1 OAN      -0.3643
     19 NAO        30.9687   44.2818   16.3359 N.am        1 OAN      -0.2057
     20 CAS        31.0397   45.3598   15.5129 C.ar        1 OAN       0.0683
     21 CAT        31.7214   45.1697   14.2880 C.ar        1 OAN      -0.0414
     22 CAU        31.9331   46.2474   13.4072 C.ar        1 OAN      -0.0756
     23 CAV        31.4769   47.5329   13.7487 C.ar        1 OAN      -0.0773
     24 CAW        30.8041   47.7377   14.9670 C.ar        1 OAN      -0.0756
     25 CAX        30.5905   46.6597   15.8447 C.ar        1 OAN      -0.0414
     26 H1         25.6865   41.9833   21.0479 H           1 OAN       0.0467
     27 H2         25.3742   41.3208   19.4348 H           1 OAN       0.0467
     28 H3         25.9901   42.9744   19.6094 H           1 OAN       0.0467
     29 H4         27.7482   41.6581   21.8557 H           1 OAN       0.1888
     30 H5         29.6101   39.9917   20.9142 H           1 OAN       0.0821
     31 H6         30.1216   42.5002   22.5985 H           1 OAN       0.0672
     32 H7         28.7421   41.3261   23.6735 H           1 OAN       0.2103
     33 H8         31.8084   39.9459   22.3946 H           1 OAN       0.0653
     34 H9         32.4840   40.7130   24.1759 H           1 OAN       0.2100
     35 H10        32.4550   42.7411   21.3034 H           1 OAN       0.0708
     36 H11        34.4387   41.8886   20.4259 H           1 OAN       0.0588
     37 H12        33.8778   40.2059   20.4556 H           1 OAN       0.0588
     38 H13        35.4573   40.6682   21.9994 H           1 OAN       0.2095
     39 H14        31.5336   43.5321   16.0939 H           1 OAN       0.2276
     40 H15        32.0792   44.2485   14.0286 H           1 OAN       0.0501
     41 H16        32.4232   46.0955   12.5186 H           1 OAN       0.0577
     42 H17        31.6285   48.3177   13.1045 H           1 OAN       0.0487
     43 H18        30.4811   48.6764   15.2171 H           1 OAN       0.0577
     44 H19        30.1479   46.8462   16.7438 H           1 OAN       0.0501
@<TRIPOS>BOND
     1     1     2   1
     2     2     3   2
     3     2     4  am
     4     4     5   1
     5     5     6   1
     6     5    14   1
     7     6     7   1
     8     6     8   1
     9     8     9   1
    10     8    10   1
    11    10    11   1
    12    10    13   1
    13    11    12   1
    14    13    14   1
    15    14    15   2
    16    15    16   1
    17    16    17   1
    18    17    18   2
    19    17    19  am
    20    19    20   1
    21    20    21  ar
    22    20    25  ar
    23    21    22  ar
    24    22    23  ar
    25    23    24  ar
    26    24    25  ar
    27     1    26   1
    28     1    27   1
    29     1    28   1
    30     4    29   1
    31     5    30   1
    32     6    31   1
    33     7    32   1
    34     8    33   1
    35     9    34   1
    36    10    35   1
    37    11    36   1
    38    11    37   1
    39    12    38   1
    40    19    39   1
    41    21    40   1
    42    22    41   1
    43    23    42   1
    44    24    43   1
    45    25    44   1
@<TRIPOS>SUBSTRUCTURE
     1  OAN      1

