@<TRIPOS>MOLECULE
2cbj_ligand_002
    44    45
SMALL
GAST_HUCK
****
This file was generated by PARSER (from files_GN.cpp)

@<TRIPOS>ATOM
      1 CAH        27.3188   42.5638   20.7185 C.3         1 OAN       0.0258
      2 CAG        28.7353   42.4291   20.9468 C.2         1 OAN       0.1755
      3 OAN        29.4905   42.9618   20.1425 O.2         1 OAN      -0.3972
      4 NAI        29.1885   41.7194   21.9697 N.am        1 OAN      -0.2641
      5 CAB        30.5642   41.4805   22.3366 C.3         1 OAN       0.1483
      6 CAC        31.2456   42.7539   22.9321 C.3         1 OAN       0.1223
      7 OAJ        30.5971   43.1205   24.1483 O.3         1 OAN      -0.3842
      8 CAD        32.7517   42.5212   23.2292 C.3         1 OAN       0.1187
      9 OAK        33.3992   43.7554   23.5372 O.3         1 OAN      -0.3859
     10 CAE        33.4418   41.8539   21.9991 C.3         1 OAN       0.1375
     11 CAF        34.9067   41.4270   22.2931 C.3         1 OAN       0.0780
     12 OAM        34.9415   40.2749   23.1296 O.3         1 OAN      -0.3919
     13 OAL        32.7151   40.6856   21.5478 O.3         1 OAN      -0.2871
     14 CAA        31.4073   40.8867   21.2978 C.2         1 OAN       0.1893
     15 NAY        30.8987   40.4206   20.2172 N.2         1 OAN      -0.1541
     16 OAQ        31.5318   39.7955   19.3082 O.3         1 OAN      -0.1506
     17 CAP        30.9026   39.2374   18.2387 C.2         1 OAN       0.3788
     18 OAR        29.5644   39.3941   18.0865 O.2         1 OAN      -0.3643
     19 NAO        31.6786   38.5202   17.3901 N.am        1 OAN      -0.2057
     20 CAS        31.3193   37.7122   16.3416 C.ar        1 OAN       0.0683
     21 CAT        30.0128   37.2218   16.0889 C.ar        1 OAN      -0.0414
     22 CAU        29.7586   36.3317   15.0263 C.ar        1 OAN      -0.0756
     23 CAV        30.8106   35.9023   14.2063 C.ar        1 OAN      -0.0773
     24 CAW        32.1181   36.3692   14.4391 C.ar        1 OAN      -0.0756
     25 CAX        32.3679   37.2627   15.5017 C.ar        1 OAN      -0.0414
     26 H1         26.7268   42.0430   21.4695 H           1 OAN       0.0467
     27 H2         27.0611   42.1494   19.7400 H           1 OAN       0.0467
     28 H3         27.0459   43.6220   20.7362 H           1 OAN       0.0467
     29 H4         28.5097   41.3368   22.5512 H           1 OAN       0.1888
     30 H5         30.5287   40.7379   23.1415 H           1 OAN       0.0821
     31 H6         31.1496   43.5846   22.2288 H           1 OAN       0.0672
     32 H7         29.6592   43.2683   23.9097 H           1 OAN       0.2103
     33 H8         32.8440   41.8621   24.0946 H           1 OAN       0.0653
     34 H9         32.7640   44.2702   24.0971 H           1 OAN       0.2100
     35 H10        33.4731   42.5843   21.1719 H           1 OAN       0.0708
     36 H11        35.4457   42.2431   22.7799 H           1 OAN       0.0588
     37 H12        35.4182   41.1920   21.3554 H           1 OAN       0.0588
     38 H13        35.8794   40.1912   23.4167 H           1 OAN       0.2095
     39 H14        32.6332   38.5709   17.5688 H           1 OAN       0.2276
     40 H15        29.2233   37.4762   16.6817 H           1 OAN       0.0501
     41 H16        28.8109   35.9856   14.8689 H           1 OAN       0.0577
     42 H17        30.6319   35.2382   13.4478 H           1 OAN       0.0487
     43 H18        32.8887   36.0452   13.8476 H           1 OAN       0.0577
     44 H19        33.3271   37.5818   15.6519 H           1 OAN       0.0501
@<TRIPOS>BOND
     1     1     2   1
     2     2     3   2
     3     2     4  am
     4     4     5   1
     5     5     6   1
     6     5    14   1
     7     6     7   1
     8     6     8   1
     9     8     9   1
    10     8    10   1
    11    10    11   1
    12    10    13   1
    13    11    12   1
    14    13    14   1
    15    14    15   2
    16    15    16   1
    17    16    17   1
    18    17    18   2
    19    17    19  am
    20    19    20   1
    21    20    21  ar
    22    20    25  ar
    23    21    22  ar
    24    22    23  ar
    25    23    24  ar
    26    24    25  ar
    27     1    26   1
    28     1    27   1
    29     1    28   1
    30     4    29   1
    31     5    30   1
    32     6    31   1
    33     7    32   1
    34     8    33   1
    35     9    34   1
    36    10    35   1
    37    11    36   1
    38    11    37   1
    39    12    38   1
    40    19    39   1
    41    21    40   1
    42    22    41   1
    43    23    42   1
    44    24    43   1
    45    25    44   1
@<TRIPOS>SUBSTRUCTURE
     1  OAN      1

