@<TRIPOS>MOLECULE
2cbj_ligand_004
    44    45
SMALL
GAST_HUCK
****
This file was generated by PARSER (from files_GN.cpp)

@<TRIPOS>ATOM
      1 CAH        30.6037   38.0047   17.3305 C.3         1 OAN       0.0258
      2 CAG        31.1816   38.9109   18.2938 C.2         1 OAN       0.1755
      3 OAN        32.3939   39.0977   18.2521 O.2         1 OAN      -0.3972
      4 NAI        30.4078   39.5319   19.1747 N.am        1 OAN      -0.2641
      5 CAB        30.8263   40.4392   20.2157 C.3         1 OAN       0.1483
      6 CAC        30.0498   40.1464   21.5375 C.3         1 OAN       0.1223
      7 OAJ        30.3187   38.8256   22.0158 O.3         1 OAN      -0.3842
      8 CAD        30.4090   41.1957   22.6289 C.3         1 OAN       0.1187
      9 OAK        29.6079   40.9798   23.7929 O.3         1 OAN      -0.3859
     10 CAE        30.2087   42.6376   22.0668 C.3         1 OAN       0.1375
     11 CAF        30.8260   43.7420   22.9659 C.3         1 OAN       0.0780
     12 OAM        30.7045   43.4610   24.3575 O.3         1 OAN      -0.3919
     13 OAL        30.8113   42.8010   20.7640 O.3         1 OAN      -0.2871
     14 CAA        30.6241   41.8390   19.8410 C.2         1 OAN       0.1893
     15 NAY        30.5602   42.1819   18.6095 N.2         1 OAN      -0.1541
     16 OAQ        30.4245   43.3826   18.2079 O.3         1 OAN      -0.1506
     17 CAP        30.7233   43.8278   16.9623 C.2         1 OAN       0.3788
     18 OAR        31.3130   42.9937   16.0701 O.2         1 OAN      -0.3643
     19 NAO        30.5125   45.1488   16.7615 N.am        1 OAN      -0.2057
     20 CAS        30.9360   46.0020   15.7822 C.ar        1 OAN       0.0683
     21 CAT        31.6750   45.6416   14.6248 C.ar        1 OAN      -0.0414
     22 CAU        32.1200   46.6235   13.7197 C.ar        1 OAN      -0.0756
     23 CAV        31.8371   47.9781   13.9519 C.ar        1 OAN      -0.0773
     24 CAW        31.0883   48.3524   15.0811 C.ar        1 OAN      -0.0756
     25 CAX        30.6434   47.3687   15.9856 C.ar        1 OAN      -0.0414
     26 H1         29.5212   37.9309   17.4464 H           1 OAN       0.0467
     27 H2         31.0283   37.0050   17.4616 H           1 OAN       0.0467
     28 H3         30.8143   38.3466   16.3174 H           1 OAN       0.0467
     29 H4         29.4528   39.4135   19.0681 H           1 OAN       0.1888
     30 H5         31.8922   40.2950   20.4324 H           1 OAN       0.0821
     31 H6         28.9755   40.2015   21.3482 H           1 OAN       0.0672
     32 H7         31.1799   38.8738   22.4774 H           1 OAN       0.2103
     33 H8         31.4562   41.0636   22.9183 H           1 OAN       0.0653
     34 H9         28.7981   41.5256   23.6709 H           1 OAN       0.2100
     35 H10        29.1335   42.8315   21.9764 H           1 OAN       0.0708
     36 H11        30.3369   44.7007   22.7676 H           1 OAN       0.0588
     37 H12        31.8890   43.8565   22.7412 H           1 OAN       0.0588
     38 H13        29.7421   43.4628   24.5285 H           1 OAN       0.2095
     39 H14        30.0260   45.5727   17.4829 H           1 OAN       0.2276
     40 H15        31.9112   44.6758   14.4237 H           1 OAN       0.0501
     41 H16        32.6621   46.3483   12.8941 H           1 OAN       0.0577
     42 H17        32.1744   48.6940   13.3017 H           1 OAN       0.0487
     43 H18        30.8841   49.3395   15.2521 H           1 OAN       0.0577
     44 H19        30.1184   47.6732   16.8126 H           1 OAN       0.0501
@<TRIPOS>BOND
     1     1     2   1
     2     2     3   2
     3     2     4  am
     4     4     5   1
     5     5     6   1
     6     5    14   1
     7     6     7   1
     8     6     8   1
     9     8     9   1
    10     8    10   1
    11    10    11   1
    12    10    13   1
    13    11    12   1
    14    13    14   1
    15    14    15   2
    16    15    16   1
    17    16    17   1
    18    17    18   2
    19    17    19  am
    20    19    20   1
    21    20    21  ar
    22    20    25  ar
    23    21    22  ar
    24    22    23  ar
    25    23    24  ar
    26    24    25  ar
    27     1    26   1
    28     1    27   1
    29     1    28   1
    30     4    29   1
    31     5    30   1
    32     6    31   1
    33     7    32   1
    34     8    33   1
    35     9    34   1
    36    10    35   1
    37    11    36   1
    38    11    37   1
    39    12    38   1
    40    19    39   1
    41    21    40   1
    42    22    41   1
    43    23    42   1
    44    24    43   1
    45    25    44   1
@<TRIPOS>SUBSTRUCTURE
     1  OAN      1

