@<TRIPOS>MOLECULE
2cbj_ligand_011
    44    45
SMALL
GAST_HUCK
****
This file was generated by PARSER (from files_GN.cpp)

@<TRIPOS>ATOM
      1 CAH        32.3001   39.4234   16.6922 C.3         1 OAN       0.0258
      2 CAG        31.8193   40.5476   17.4601 C.2         1 OAN       0.1755
      3 OAN        31.1670   41.4019   16.8692 O.2         1 OAN      -0.3972
      4 NAI        32.0303   40.6058   18.7730 N.am        1 OAN      -0.2641
      5 CAB        31.7103   41.7061   19.6531 C.3         1 OAN       0.1483
      6 CAC        32.9068   41.9076   20.6283 C.3         1 OAN       0.1223
      7 OAJ        34.0751   42.2209   19.8631 O.3         1 OAN      -0.3842
      8 CAD        32.5975   43.0255   21.6621 C.3         1 OAN       0.1187
      9 OAK        33.6462   43.0892   22.6285 O.3         1 OAN      -0.3859
     10 CAE        31.2254   42.7496   22.3468 C.3         1 OAN       0.1375
     11 CAF        30.8072   43.9149   23.2972 C.3         1 OAN       0.0780
     12 OAM        30.5187   43.4439   24.6107 O.3         1 OAN      -0.3919
     13 OAL        30.1916   42.5372   21.3432 O.3         1 OAN      -0.2871
     14 CAA        30.4372   41.6029   20.3922 C.2         1 OAN       0.1893
     15 NAY        29.3824   41.0597   19.8931 N.2         1 OAN      -0.1541
     16 OAQ        29.4042   40.1816   18.9668 O.3         1 OAN      -0.1506
     17 CAP        28.6795   40.1317   17.8249 C.2         1 OAN       0.3788
     18 OAR        27.8522   41.1436   17.4732 O.2         1 OAN      -0.3643
     19 NAO        28.9608   39.0780   17.0231 N.am        1 OAN      -0.2057
     20 CAS        28.7241   38.8854   15.6937 C.ar        1 OAN       0.0683
     21 CAT        28.7789   37.5539   15.2221 C.ar        1 OAN      -0.0414
     22 CAU        28.6471   37.2573   13.8505 C.ar        1 OAN      -0.0756
     23 CAV        28.4746   38.2977   12.9244 C.ar        1 OAN      -0.0773
     24 CAW        28.4618   39.6319   13.3688 C.ar        1 OAN      -0.0756
     25 CAX        28.6009   39.9255   14.7390 C.ar        1 OAN      -0.0414
     26 H1         32.9088   38.7446   17.2968 H           1 OAN       0.0467
     27 H2         32.9100   39.7826   15.8574 H           1 OAN       0.0467
     28 H3         31.4510   38.8631   16.2875 H           1 OAN       0.0467
     29 H4         32.4950   39.8457   19.1691 H           1 OAN       0.1888
     30 H5         31.6242   42.6228   19.0650 H           1 OAN       0.0821
     31 H6         33.1037   40.9715   21.1667 H           1 OAN       0.0672
     32 H7         34.4866   43.0181   20.2654 H           1 OAN       0.2103
     33 H8         32.5476   43.9842   21.1421 H           1 OAN       0.0653
     34 H9         34.4355   43.3868   22.1284 H           1 OAN       0.2100
     35 H10        31.3140   41.8396   22.9514 H           1 OAN       0.0708
     36 H11        29.9267   44.4368   22.9146 H           1 OAN       0.0588
     37 H12        31.6042   44.6510   23.3935 H           1 OAN       0.0588
     38 H13        29.5676   43.2140   24.5876 H           1 OAN       0.2095
     39 H14        29.4521   38.3589   17.4565 H           1 OAN       0.2276
     40 H15        28.9327   36.7825   15.8768 H           1 OAN       0.0501
     41 H16        28.7019   36.2864   13.5324 H           1 OAN       0.0577
     42 H17        28.3814   38.0796   11.9303 H           1 OAN       0.0487
     43 H18        28.3814   40.3880   12.6811 H           1 OAN       0.0577
     44 H19        28.6646   40.8998   15.0362 H           1 OAN       0.0501
@<TRIPOS>BOND
     1     1     2   1
     2     2     3   2
     3     2     4  am
     4     4     5   1
     5     5     6   1
     6     5    14   1
     7     6     7   1
     8     6     8   1
     9     8     9   1
    10     8    10   1
    11    10    11   1
    12    10    13   1
    13    11    12   1
    14    13    14   1
    15    14    15   2
    16    15    16   1
    17    16    17   1
    18    17    18   2
    19    17    19  am
    20    19    20   1
    21    20    21  ar
    22    20    25  ar
    23    21    22  ar
    24    22    23  ar
    25    23    24  ar
    26    24    25  ar
    27     1    26   1
    28     1    27   1
    29     1    28   1
    30     4    29   1
    31     5    30   1
    32     6    31   1
    33     7    32   1
    34     8    33   1
    35     9    34   1
    36    10    35   1
    37    11    36   1
    38    11    37   1
    39    12    38   1
    40    19    39   1
    41    21    40   1
    42    22    41   1
    43    23    42   1
    44    24    43   1
    45    25    44   1
@<TRIPOS>SUBSTRUCTURE
     1  OAN      1

