@<TRIPOS>MOLECULE
2cbj_ligand_034
    44    45
SMALL
GAST_HUCK
****
This file was generated by PARSER (from files_GN.cpp)

@<TRIPOS>ATOM
      1 CAH        33.6102   38.5954   16.2875 C.3         1 OAN       0.0258
      2 CAG        32.6871   39.3599   17.0983 C.2         1 OAN       0.1755
      3 OAN        31.7318   39.8969   16.5440 O.2         1 OAN      -0.3972
      4 NAI        32.8700   39.4391   18.4137 N.am        1 OAN      -0.2641
      5 CAB        32.0894   40.2167   19.3404 C.3         1 OAN       0.1483
      6 CAC        32.9380   40.5056   20.6166 C.3         1 OAN       0.1223
      7 OAJ        34.0844   41.2808   20.2727 O.3         1 OAN      -0.3842
      8 CAD        32.1074   41.2653   21.6858 C.3         1 OAN       0.1187
      9 OAK        32.8495   41.3931   22.9033 O.3         1 OAN      -0.3859
     10 CAE        30.7648   40.5044   21.9103 C.3         1 OAN       0.1375
     11 CAF        29.7986   41.2759   22.8365 C.3         1 OAN       0.0780
     12 OAM        29.1340   42.3019   22.1013 O.3         1 OAN      -0.3919
     13 OAL        30.0700   40.2774   20.6564 O.3         1 OAN      -0.2871
     14 CAA        30.7834   39.6529   19.7132 C.2         1 OAN       0.1893
     15 NAY        30.1128   38.8055   19.0233 N.2         1 OAN      -0.1541
     16 OAQ        30.5727   38.0246   18.1348 O.3         1 OAN      -0.1506
     17 CAP        29.9854   37.7436   16.9473 C.2         1 OAN       0.3788
     18 OAR        28.9115   38.4444   16.5141 O.2         1 OAN      -0.3643
     19 NAO        30.6133   36.8366   16.1705 N.am        1 OAN      -0.2057
     20 CAS        30.3751   36.6575   14.8503 C.ar        1 OAN       0.0683
     21 CAT        29.9058   35.4195   14.3750 C.ar        1 OAN      -0.0414
     22 CAU        29.7283   35.2133   12.9948 C.ar        1 OAN      -0.0756
     23 CAV        30.0522   36.2363   12.0805 C.ar        1 OAN      -0.0773
     24 CAW        30.5396   37.4710   12.5512 C.ar        1 OAN      -0.0756
     25 CAX        30.6992   37.6834   13.9326 C.ar        1 OAN      -0.0414
     26 H1         34.4742   38.2481   16.8699 H           1 OAN       0.0467
     27 H2         33.9811   39.2175   15.4656 H           1 OAN       0.0467
     28 H3         33.0947   37.7249   15.8691 H           1 OAN       0.0467
     29 H4         33.6375   38.9748   18.7801 H           1 OAN       0.1888
     30 H5         31.8776   41.1957   18.8915 H           1 OAN       0.0821
     31 H6         33.2885   39.5624   21.0448 H           1 OAN       0.0672
     32 H7         34.4779   41.5753   21.1235 H           1 OAN       0.2103
     33 H8         31.8954   42.2704   21.3078 H           1 OAN       0.0653
     34 H9         32.5777   40.6337   23.4592 H           1 OAN       0.2100
     35 H10        30.9865   39.5395   22.3872 H           1 OAN       0.0708
     36 H11        30.3431   41.7241   23.6774 H           1 OAN       0.0588
     37 H12        29.0488   40.5869   23.2359 H           1 OAN       0.0588
     38 H13        28.9738   42.9987   22.7631 H           1 OAN       0.2095
     39 H14        31.3301   36.3214   16.5726 H           1 OAN       0.2276
     40 H15        29.6974   34.6614   15.0280 H           1 OAN       0.0501
     41 H16        29.3775   34.3160   12.6505 H           1 OAN       0.0577
     42 H17        29.9390   36.0800   11.0744 H           1 OAN       0.0487
     43 H18        30.7849   38.2088   11.8884 H           1 OAN       0.0577
     44 H19        31.0689   38.5737   14.2646 H           1 OAN       0.0501
@<TRIPOS>BOND
     1     1     2   1
     2     2     3   2
     3     2     4  am
     4     4     5   1
     5     5     6   1
     6     5    14   1
     7     6     7   1
     8     6     8   1
     9     8     9   1
    10     8    10   1
    11    10    11   1
    12    10    13   1
    13    11    12   1
    14    13    14   1
    15    14    15   2
    16    15    16   1
    17    16    17   1
    18    17    18   2
    19    17    19  am
    20    19    20   1
    21    20    21  ar
    22    20    25  ar
    23    21    22  ar
    24    22    23  ar
    25    23    24  ar
    26    24    25  ar
    27     1    26   1
    28     1    27   1
    29     1    28   1
    30     4    29   1
    31     5    30   1
    32     6    31   1
    33     7    32   1
    34     8    33   1
    35     9    34   1
    36    10    35   1
    37    11    36   1
    38    11    37   1
    39    12    38   1
    40    19    39   1
    41    21    40   1
    42    22    41   1
    43    23    42   1
    44    24    43   1
    45    25    44   1
@<TRIPOS>SUBSTRUCTURE
     1  OAN      1

