@<TRIPOS>MOLECULE
2cbj_ligand_005
    44    45
SMALL
GAST_HUCK
****
This file was generated by PARSER (from files_GN.cpp)

@<TRIPOS>ATOM
      1 CAH        31.4020   38.8089   17.6001 C.3         1 OAN       0.0258
      2 CAG        31.1904   39.6684   18.7295 C.2         1 OAN       0.1755
      3 OAN        30.4204   39.3068   19.6239 O.2         1 OAN      -0.3972
      4 NAI        31.7502   40.8792   18.7591 N.am        1 OAN      -0.2641
      5 CAB        31.6837   41.9101   19.7610 C.3         1 OAN       0.1483
      6 CAC        32.9508   41.8933   20.6574 C.3         1 OAN       0.1223
      7 OAJ        34.1197   42.1997   19.8839 O.3         1 OAN      -0.3842
      8 CAD        32.7840   42.8967   21.8265 C.3         1 OAN       0.1187
      9 OAK        33.9324   42.9089   22.6620 O.3         1 OAN      -0.3859
     10 CAE        31.4890   42.5392   22.6389 C.3         1 OAN       0.1375
     11 CAF        30.8605   43.7783   23.2944 C.3         1 OAN       0.0780
     12 OAM        30.5025   43.5380   24.6575 O.3         1 OAN      -0.3919
     13 OAL        30.4846   41.7929   21.8821 O.3         1 OAN      -0.2871
     14 CAA        30.4644   41.9559   20.5480 C.2         1 OAN       0.1893
     15 NAY        29.3524   42.2312   19.9534 N.2         1 OAN      -0.1541
     16 OAQ        28.2016   42.2101   20.4968 O.3         1 OAN      -0.1506
     17 CAP        27.1257   42.9211   20.0727 C.2         1 OAN       0.3788
     18 OAR        27.2639   43.8518   19.0784 O.2         1 OAN      -0.3643
     19 NAO        25.9849   42.7953   20.7720 N.am        1 OAN      -0.2057
     20 CAS        24.9886   43.7052   20.7655 C.ar        1 OAN       0.0683
     21 CAT        25.0986   44.7934   21.6456 C.ar        1 OAN      -0.0414
     22 CAU        24.0808   45.7554   21.7135 C.ar        1 OAN      -0.0756
     23 CAV        22.9348   45.6132   20.9071 C.ar        1 OAN      -0.0773
     24 CAW        22.8292   44.5426   20.0113 C.ar        1 OAN      -0.0756
     25 CAX        23.8567   43.5860   19.9308 C.ar        1 OAN      -0.0414
     26 H1         32.0806   39.2522   16.8642 H           1 OAN       0.0467
     27 H2         30.4532   38.5863   17.1101 H           1 OAN       0.0467
     28 H3         31.8464   37.8756   17.9431 H           1 OAN       0.0467
     29 H4         32.3275   41.0758   18.0015 H           1 OAN       0.1888
     30 H5         31.7165   42.8543   19.1973 H           1 OAN       0.0821
     31 H6         33.0911   40.8891   21.0739 H           1 OAN       0.0672
     32 H7         34.4538   43.0568   20.2255 H           1 OAN       0.2103
     33 H8         32.6718   43.9047   21.4009 H           1 OAN       0.0653
     34 H9         34.6218   43.3396   22.1121 H           1 OAN       0.2100
     35 H10        31.8056   41.8567   23.4470 H           1 OAN       0.0708
     36 H11        29.9657   44.0950   22.7409 H           1 OAN       0.0588
     37 H12        31.5741   44.6203   23.3040 H           1 OAN       0.0588
     38 H13        29.5397   43.3625   24.6438 H           1 OAN       0.2095
     39 H14        25.9982   42.1514   21.5055 H           1 OAN       0.2276
     40 H15        25.9044   44.8855   22.2554 H           1 OAN       0.0501
     41 H16        24.1630   46.5431   22.3491 H           1 OAN       0.0577
     42 H17        22.1734   46.3189   20.9703 H           1 OAN       0.0487
     43 H18        21.9875   44.4451   19.4283 H           1 OAN       0.0577
     44 H19        23.7607   42.7912   19.2945 H           1 OAN       0.0501
@<TRIPOS>BOND
     1     1     2   1
     2     2     3   2
     3     2     4  am
     4     4     5   1
     5     5     6   1
     6     5    14   1
     7     6     7   1
     8     6     8   1
     9     8     9   1
    10     8    10   1
    11    10    11   1
    12    10    13   1
    13    11    12   1
    14    13    14   1
    15    14    15   2
    16    15    16   1
    17    16    17   1
    18    17    18   2
    19    17    19  am
    20    19    20   1
    21    20    21  ar
    22    20    25  ar
    23    21    22  ar
    24    22    23  ar
    25    23    24  ar
    26    24    25  ar
    27     1    26   1
    28     1    27   1
    29     1    28   1
    30     4    29   1
    31     5    30   1
    32     6    31   1
    33     7    32   1
    34     8    33   1
    35     9    34   1
    36    10    35   1
    37    11    36   1
    38    11    37   1
    39    12    38   1
    40    19    39   1
    41    21    40   1
    42    22    41   1
    43    23    42   1
    44    24    43   1
    45    25    44   1
@<TRIPOS>SUBSTRUCTURE
     1  OAN      1

