@<TRIPOS>MOLECULE
2cbj_ligand_019
    44    45
SMALL
GAST_HUCK
****
This file was generated by PARSER (from files_GN.cpp)

@<TRIPOS>ATOM
      1 CAH        21.8046   45.0028   20.5408 C.3         1 OAN       0.0258
      2 CAG        22.7087   44.6160   19.4803 C.2         1 OAN       0.1755
      3 OAN        22.7220   45.2992   18.4610 O.2         1 OAN      -0.3972
      4 NAI        23.4760   43.5408   19.6127 N.am        1 OAN      -0.2641
      5 CAB        24.3902   43.0202   18.6276 C.3         1 OAN       0.1483
      6 CAC        23.6628   41.9787   17.7157 C.3         1 OAN       0.1223
      7 OAJ        22.6442   42.6234   16.9404 O.3         1 OAN      -0.3842
      8 CAD        24.6543   41.2425   16.7585 C.3         1 OAN       0.1187
      9 OAK        23.9957   40.1632   16.0937 O.3         1 OAN      -0.3859
     10 CAE        25.8756   40.7286   17.5837 C.3         1 OAN       0.1375
     11 CAF        26.9997   40.1345   16.7024 C.3         1 OAN       0.0780
     12 OAM        27.3909   41.0177   15.6494 O.3         1 OAN      -0.3919
     13 OAL        26.4463   41.8094   18.3524 O.3         1 OAN      -0.2871
     14 CAA        25.5884   42.4013   19.1979 C.2         1 OAN       0.1893
     15 NAY        25.7999   42.3730   20.4667 N.2         1 OAN      -0.1541
     16 OAQ        26.7893   41.9764   21.1750 O.3         1 OAN      -0.1506
     17 CAP        28.1174   41.7890   20.9390 C.2         1 OAN       0.3788
     18 OAR        28.6994   42.2106   19.7893 O.2         1 OAN      -0.3643
     19 NAO        28.8439   41.3180   21.9771 N.am        1 OAN      -0.2057
     20 CAS        30.1967   41.1821   22.0570 C.ar        1 OAN       0.0683
     21 CAT        30.8106   41.5039   23.2904 C.ar        1 OAN      -0.0414
     22 CAU        32.2099   41.4475   23.4324 C.ar        1 OAN      -0.0756
     23 CAV        33.0092   41.0340   22.3525 C.ar        1 OAN      -0.0773
     24 CAW        32.4067   40.6613   21.1374 C.ar        1 OAN      -0.0756
     25 CAX        31.0077   40.7351   20.9910 C.ar        1 OAN      -0.0414
     26 H1         21.8593   44.3165   21.3895 H           1 OAN       0.0467
     27 H2         20.7797   45.0026   20.1654 H           1 OAN       0.0467
     28 H3         22.0571   46.0054   20.8897 H           1 OAN       0.0467
     29 H4         23.3998   43.0523   20.4516 H           1 OAN       0.1888
     30 H5         24.7550   43.8294   17.9894 H           1 OAN       0.0821
     31 H6         23.1683   41.2312   18.3510 H           1 OAN       0.0672
     32 H7         23.1184   43.2841   16.3958 H           1 OAN       0.2103
     33 H8         25.0042   41.9553   16.0071 H           1 OAN       0.0653
     34 H9         23.3249   40.5931   15.5163 H           1 OAN       0.2100
     35 H10        25.5416   39.9350   18.2633 H           1 OAN       0.0708
     36 H11        26.6767   39.1896   16.2601 H           1 OAN       0.0588
     37 H12        27.8823   39.9344   17.3204 H           1 OAN       0.0588
     38 H13        27.7472   41.8196   16.1028 H           1 OAN       0.2095
     39 H14        28.3427   41.1805   22.8005 H           1 OAN       0.2276
     40 H15        30.2439   41.8154   24.0907 H           1 OAN       0.0501
     41 H16        32.6500   41.7274   24.3140 H           1 OAN       0.0577
     42 H17        34.0278   40.9952   22.4559 H           1 OAN       0.0487
     43 H18        32.9893   40.3506   20.3549 H           1 OAN       0.0577
     44 H19        30.5919   40.4475   20.1090 H           1 OAN       0.0501
@<TRIPOS>BOND
     1     1     2   1
     2     2     3   2
     3     2     4  am
     4     4     5   1
     5     5     6   1
     6     5    14   1
     7     6     7   1
     8     6     8   1
     9     8     9   1
    10     8    10   1
    11    10    11   1
    12    10    13   1
    13    11    12   1
    14    13    14   1
    15    14    15   2
    16    15    16   1
    17    16    17   1
    18    17    18   2
    19    17    19  am
    20    19    20   1
    21    20    21  ar
    22    20    25  ar
    23    21    22  ar
    24    22    23  ar
    25    23    24  ar
    26    24    25  ar
    27     1    26   1
    28     1    27   1
    29     1    28   1
    30     4    29   1
    31     5    30   1
    32     6    31   1
    33     7    32   1
    34     8    33   1
    35     9    34   1
    36    10    35   1
    37    11    36   1
    38    11    37   1
    39    12    38   1
    40    19    39   1
    41    21    40   1
    42    22    41   1
    43    23    42   1
    44    24    43   1
    45    25    44   1
@<TRIPOS>SUBSTRUCTURE
     1  OAN      1

