@<TRIPOS>MOLECULE
2cbj_ligand_039
    44    45
SMALL
GAST_HUCK
****
This file was generated by PARSER (from files_GN.cpp)

@<TRIPOS>ATOM
      1 CAH        34.9819   38.3074   21.4080 C.3         1 OAN       0.0258
      2 CAG        34.1444   39.4741   21.5810 C.2         1 OAN       0.1755
      3 OAN        33.0680   39.3517   22.1608 O.2         1 OAN      -0.3972
      4 NAI        34.5454   40.6435   21.0955 N.am        1 OAN      -0.2641
      5 CAB        33.8479   41.9001   21.1880 C.3         1 OAN       0.1483
      6 CAC        34.0573   42.4897   22.6271 C.3         1 OAN       0.1223
      7 OAJ        35.2776   43.2286   22.6935 O.3         1 OAN      -0.3842
      8 CAD        32.8965   43.4018   23.0824 C.3         1 OAN       0.1187
      9 OAK        33.0483   43.6934   24.4756 O.3         1 OAN      -0.3859
     10 CAE        31.5526   42.6884   22.7887 C.3         1 OAN       0.1375
     11 CAF        30.3134   43.5009   23.2494 C.3         1 OAN       0.0780
     12 OAM        29.9796   43.2035   24.6061 O.3         1 OAN      -0.3919
     13 OAL        31.4467   42.4672   21.3626 O.3         1 OAN      -0.2871
     14 CAA        32.4483   41.8134   20.7464 C.2         1 OAN       0.1893
     15 NAY        32.1703   41.1018   19.7132 N.2         1 OAN      -0.1541
     16 OAQ        31.0905   40.8194   19.0741 O.3         1 OAN      -0.1506
     17 CAP        29.8260   41.3217   19.0312 C.2         1 OAN       0.3788
     18 OAR        29.5365   42.5253   19.5855 O.2         1 OAN      -0.3643
     19 NAO        28.9036   40.6020   18.3456 N.am        1 OAN      -0.2057
     20 CAS        27.5542   40.8202   18.2459 C.ar        1 OAN       0.0683
     21 CAT        26.8907   40.2552   17.1314 C.ar        1 OAN      -0.0414
     22 CAU        25.4970   40.3923   16.9732 C.ar        1 OAN      -0.0756
     23 CAV        24.7452   41.0899   17.9308 C.ar        1 OAN      -0.0773
     24 CAW        25.3823   41.6437   19.0530 C.ar        1 OAN      -0.0756
     25 CAX        26.7726   41.5005   19.2134 C.ar        1 OAN      -0.0414
     26 H1         35.9731   38.5127   21.8184 H           1 OAN       0.0467
     27 H2         35.0720   38.0695   20.3442 H           1 OAN       0.0467
     28 H3         34.5712   37.4258   21.9144 H           1 OAN       0.0467
     29 H4         35.4126   40.6627   20.6656 H           1 OAN       0.1888
     30 H5         34.3319   42.5717   20.4748 H           1 OAN       0.0821
     31 H6         34.1376   41.6805   23.3566 H           1 OAN       0.0672
     32 H7         35.9966   42.5612   22.6400 H           1 OAN       0.2103
     33 H8         32.9318   44.3391   22.5146 H           1 OAN       0.0653
     34 H9         32.1872   44.0744   24.7365 H           1 OAN       0.2100
     35 H10        31.5323   41.7184   23.3033 H           1 OAN       0.0708
     36 H11        29.4572   43.2512   22.6153 H           1 OAN       0.0588
     37 H12        30.4971   44.5771   23.1656 H           1 OAN       0.0588
     38 H13        29.2089   42.5991   24.5533 H           1 OAN       0.2095
     39 H14        29.2440   39.8231   17.8786 H           1 OAN       0.2276
     40 H15        27.4193   39.7332   16.4255 H           1 OAN       0.0501
     41 H16        25.0334   39.9794   16.1576 H           1 OAN       0.0577
     42 H17        23.7345   41.1847   17.8194 H           1 OAN       0.0487
     43 H18        24.8357   42.1404   19.7600 H           1 OAN       0.0577
     44 H19        27.1941   41.8656   20.0672 H           1 OAN       0.0501
@<TRIPOS>BOND
     1     1     2   1
     2     2     3   2
     3     2     4  am
     4     4     5   1
     5     5     6   1
     6     5    14   1
     7     6     7   1
     8     6     8   1
     9     8     9   1
    10     8    10   1
    11    10    11   1
    12    10    13   1
    13    11    12   1
    14    13    14   1
    15    14    15   2
    16    15    16   1
    17    16    17   1
    18    17    18   2
    19    17    19  am
    20    19    20   1
    21    20    21  ar
    22    20    25  ar
    23    21    22  ar
    24    22    23  ar
    25    23    24  ar
    26    24    25  ar
    27     1    26   1
    28     1    27   1
    29     1    28   1
    30     4    29   1
    31     5    30   1
    32     6    31   1
    33     7    32   1
    34     8    33   1
    35     9    34   1
    36    10    35   1
    37    11    36   1
    38    11    37   1
    39    12    38   1
    40    19    39   1
    41    21    40   1
    42    22    41   1
    43    23    42   1
    44    24    43   1
    45    25    44   1
@<TRIPOS>SUBSTRUCTURE
     1  OAN      1

