@<TRIPOS>MOLECULE
2cbj_ligand_028
    44    45
SMALL
GAST_HUCK
****
This file was generated by PARSER (from files_GN.cpp)

@<TRIPOS>ATOM
      1 CAH        30.9367   44.1839   23.3866 C.3         1 OAN       0.0258
      2 CAG        31.0551   43.2117   22.3302 C.2         1 OAN       0.1755
      3 OAN        32.1665   43.0860   21.8375 O.2         1 OAN      -0.3972
      4 NAI        29.9925   42.5155   21.9513 N.am        1 OAN      -0.2641
      5 CAB        29.8433   41.5547   20.8966 C.3         1 OAN       0.1483
      6 CAC        31.1386   40.9006   20.3154 C.3         1 OAN       0.1223
      7 OAJ        31.8413   40.2137   21.3531 O.3         1 OAN      -0.3842
      8 CAD        30.8052   39.8938   19.1823 C.3         1 OAN       0.1187
      9 OAK        32.0294   39.4420   18.6074 O.3         1 OAN      -0.3859
     10 CAE        29.9208   40.6036   18.1188 C.3         1 OAN       0.1375
     11 CAF        29.4385   39.6287   17.0199 C.3         1 OAN       0.0780
     12 OAM        28.1983   40.0429   16.4490 O.3         1 OAN      -0.3919
     13 OAL        28.7673   41.2434   18.7212 O.3         1 OAN      -0.2871
     14 CAA        29.0388   42.0562   19.7679 C.2         1 OAN       0.1893
     15 NAY        28.4428   43.1915   19.8437 N.2         1 OAN      -0.1541
     16 OAQ        27.8655   43.8906   18.9271 O.3         1 OAN      -0.1506
     17 CAP        28.4096   44.4875   17.8392 C.2         1 OAN       0.3788
     18 OAR        29.7648   44.5888   17.7274 O.2         1 OAN      -0.3643
     19 NAO        27.5627   45.2402   17.1010 N.am        1 OAN      -0.2057
     20 CAS        27.8767   46.1734   16.1657 C.ar        1 OAN       0.0683
     21 CAT        27.4250   47.4920   16.3798 C.ar        1 OAN      -0.0414
     22 CAU        27.7423   48.5209   15.4696 C.ar        1 OAN      -0.0756
     23 CAV        28.5026   48.2327   14.3200 C.ar        1 OAN      -0.0773
     24 CAW        28.9357   46.9180   14.0772 C.ar        1 OAN      -0.0756
     25 CAX        28.6230   45.8993   14.9941 C.ar        1 OAN      -0.0414
     26 H1         29.9174   44.2716   23.7599 H           1 OAN       0.0467
     27 H2         31.2526   45.1752   23.0264 H           1 OAN       0.0467
     28 H3         31.5800   43.8960   24.2292 H           1 OAN       0.0467
     29 H4         29.1821   42.7288   22.4301 H           1 OAN       0.1888
     30 H5         29.2610   40.7360   21.3347 H           1 OAN       0.0821
     31 H6         31.7958   41.6720   19.9007 H           1 OAN       0.0672
     32 H7         32.2609   40.9203   21.9081 H           1 OAN       0.2103
     33 H8         30.2652   39.0498   19.6051 H           1 OAN       0.0653
     34 H9         31.8100   38.5922   18.1490 H           1 OAN       0.2100
     35 H10        30.5084   41.3778   17.6102 H           1 OAN       0.0708
     36 H11        29.3232   38.6110   17.4242 H           1 OAN       0.0588
     37 H12        30.1840   39.5796   16.2251 H           1 OAN       0.0588
     38 H13        27.5362   39.8975   17.1742 H           1 OAN       0.2095
     39 H14        26.6324   45.2017   17.3740 H           1 OAN       0.2276
     40 H15        26.8787   47.7275   17.2186 H           1 OAN       0.0501
     41 H16        27.4141   49.4781   15.6395 H           1 OAN       0.0577
     42 H17        28.7247   48.9756   13.6551 H           1 OAN       0.0487
     43 H18        29.4582   46.6983   13.2335 H           1 OAN       0.0577
     44 H19        28.9309   44.9470   14.7803 H           1 OAN       0.0501
@<TRIPOS>BOND
     1     1     2   1
     2     2     3   2
     3     2     4  am
     4     4     5   1
     5     5     6   1
     6     5    14   1
     7     6     7   1
     8     6     8   1
     9     8     9   1
    10     8    10   1
    11    10    11   1
    12    10    13   1
    13    11    12   1
    14    13    14   1
    15    14    15   2
    16    15    16   1
    17    16    17   1
    18    17    18   2
    19    17    19  am
    20    19    20   1
    21    20    21  ar
    22    20    25  ar
    23    21    22  ar
    24    22    23  ar
    25    23    24  ar
    26    24    25  ar
    27     1    26   1
    28     1    27   1
    29     1    28   1
    30     4    29   1
    31     5    30   1
    32     6    31   1
    33     7    32   1
    34     8    33   1
    35     9    34   1
    36    10    35   1
    37    11    36   1
    38    11    37   1
    39    12    38   1
    40    19    39   1
    41    21    40   1
    42    22    41   1
    43    23    42   1
    44    24    43   1
    45    25    44   1
@<TRIPOS>SUBSTRUCTURE
     1  OAN      1

