@<TRIPOS>MOLECULE
2cet_ligand_035
    42    44
SMALL
GAST_HUCK
****
This file was generated by PARSER (from files_GN.cpp)

@<TRIPOS>ATOM
      1 O6         -4.4780    6.2507   15.3829 O.3         1 PGI      -0.3919
      2 C6         -3.3515    6.4618   16.2300 C.3         1 PGI       0.0768
      3 C5         -2.2652    7.3137   15.5106 C.3         1 PGI       0.1168
      4 C4         -2.7515    8.7969   15.3660 C.3         1 PGI       0.1178
      5 O4         -2.7505    9.4637   16.6226 O.3         1 PGI      -0.3858
      6 C3         -1.8487    9.5887   14.3801 C.3         1 PGI       0.1252
      7 O3         -2.2796   10.9433   14.2914 O.3         1 PGI      -0.3839
      8 C2         -1.8239    8.9207   12.9737 C.3         1 PGI       0.1578
      9 O2         -0.8067    9.5031   12.1539 O.3         1 PGI      -0.3700
     10 N1         -1.8634    6.7501   14.2335 N.pl3       1 PGI      -0.2495
     11 C8         -1.5640    5.4689   13.9341 C.2         1 PGI       0.0236
     12 C7         -1.2185    5.4043   12.5901 C.2         1 PGI      -0.0178
     13 N2         -1.2839    6.6463   12.0946 N.2         1 PGI      -0.3315
     14 C1         -1.6441    7.4601   13.0996 C.2         1 PGI       0.1427
     15 C9         -0.8355    4.2163   11.8099 C.3         1 PGI      -0.0191
     16 C10         0.6839    3.9215   11.8806 C.3         1 PGI      -0.0133
     17 C14         1.1619    3.0962   10.7365 C.ar        1 PGI      -0.0416
     18 C13         0.3017    2.1348   10.1417 C.ar        1 PGI      -0.0602
     19 C12         0.7351    1.3714    9.0391 C.ar        1 PGI      -0.0686
     20 C15         2.4590    3.2669   10.2016 C.ar        1 PGI      -0.0602
     21 C16         2.8926    2.5057    9.1005 C.ar        1 PGI      -0.0686
     22 C11         2.0236    1.5615    8.5109 C.ar        1 PGI      -0.0687
     23 H1         -5.1085    5.7046   15.8927 H           1 PGI       0.2095
     24 H2         -2.9469    5.4873   16.5068 H           1 PGI       0.0589
     25 H3         -3.6824    6.9627   17.1434 H           1 PGI       0.0589
     26 H4         -1.3752    7.3116   16.1497 H           1 PGI       0.0699
     27 H5         -3.7772    8.8038   14.9845 H           1 PGI       0.0654
     28 H6         -3.6227    9.9220   16.6772 H           1 PGI       0.2100
     29 H7         -0.8311    9.5995   14.7859 H           1 PGI       0.0675
     30 H8         -1.4873   11.4209   13.9818 H           1 PGI       0.2103
     31 H9         -2.7780    9.0768   12.4740 H           1 PGI       0.0858
     32 H10        -0.1775    9.9633   12.7588 H           1 PGI       0.2138
     33 H11        -1.6098    4.6703   14.5688 H           1 PGI       0.0663
     34 H12        -1.1166    4.3744   10.7657 H           1 PGI       0.0392
     35 H13        -1.4006    3.3569   12.1751 H           1 PGI       0.0392
     36 H14         0.9194    3.3971   12.8113 H           1 PGI       0.0442
     37 H15         1.2252    4.8683   11.9068 H           1 PGI       0.0442
     38 H16        -0.6421    1.9831   10.5110 H           1 PGI       0.0557
     39 H17         0.1109    0.6799    8.6196 H           1 PGI       0.0599
     40 H18         3.1026    3.9514   10.6085 H           1 PGI       0.0557
     41 H19         3.8339    2.6410    8.7235 H           1 PGI       0.0599
     42 H20         2.3392    1.0096    7.7065 H           1 PGI       0.0559
@<TRIPOS>BOND
     1     1     2   1
     2     2     3   1
     3     3     4   1
     4     3    10   1
     5     4     5   1
     6     4     6   1
     7     6     7   1
     8     6     8   1
     9     8     9   1
    10     8    14   1
    11    10    11   1
    12    10    14   1
    13    11    12   2
    14    12    13   1
    15    12    15   1
    16    13    14   2
    17    15    16   1
    18    16    17   1
    19    17    18  ar
    20    17    20  ar
    21    18    19  ar
    22    19    22  ar
    23    20    21  ar
    24    21    22  ar
    25     1    23   1
    26     2    24   1
    27     2    25   1
    28     3    26   1
    29     4    27   1
    30     5    28   1
    31     6    29   1
    32     7    30   1
    33     8    31   1
    34     9    32   1
    35    11    33   1
    36    15    34   1
    37    15    35   1
    38    16    36   1
    39    16    37   1
    40    18    38   1
    41    19    39   1
    42    20    40   1
    43    21    41   1
    44    22    42   1
@<TRIPOS>SUBSTRUCTURE
     1  PGI      2

