@<TRIPOS>MOLECULE
2cet_ligand_007
    42    44
SMALL
GAST_HUCK
****
This file was generated by PARSER (from files_GN.cpp)

@<TRIPOS>ATOM
      1 O6         -5.1401    7.6352   17.2912 O.3         1 PGI      -0.3919
      2 C6         -4.2680    6.5474   16.9581 C.3         1 PGI       0.0768
      3 C5         -3.0060    6.9629   16.1405 C.3         1 PGI       0.1168
      4 C4         -3.0939    8.4446   15.6208 C.3         1 PGI       0.1178
      5 O4         -2.8770    9.3733   16.6935 O.3         1 PGI      -0.3858
      6 C3         -2.0237    8.7342   14.5267 C.3         1 PGI       0.1252
      7 O3         -2.1283   10.0800   14.0971 O.3         1 PGI      -0.3839
      8 C2         -2.2038    7.7736   13.3269 C.3         1 PGI       0.1578
      9 O2         -1.0781    7.8543   12.4594 O.3         1 PGI      -0.3700
     10 N1         -2.7574    6.0417   15.0512 N.pl3       1 PGI      -0.2495
     11 C8         -2.7755    4.6951   15.0935 C.2         1 PGI       0.0236
     12 C7         -2.4402    4.2126   13.8304 C.2         1 PGI      -0.0178
     13 N2         -2.2088    5.2769   13.0490 N.2         1 PGI      -0.3315
     14 C1         -2.3803    6.3812   13.7961 C.2         1 PGI       0.1427
     15 C9         -2.3169    2.8020   13.3948 C.3         1 PGI      -0.0191
     16 C10        -1.1475    2.0391   14.0781 C.3         1 PGI      -0.0133
     17 C14        -1.3353    1.8415   15.5413 C.ar        1 PGI      -0.0416
     18 C13        -2.1420    0.7901   16.0348 C.ar        1 PGI      -0.0602
     19 C12        -2.3470    0.6310   17.4172 C.ar        1 PGI      -0.0686
     20 C15        -0.7728    2.7563   16.4683 C.ar        1 PGI      -0.0602
     21 C16        -0.9872    2.5976   17.8541 C.ar        1 PGI      -0.0686
     22 C11        -1.7991    1.5570   18.3249 C.ar        1 PGI      -0.0687
     23 H1         -4.8889    7.8959   18.2121 H           1 PGI       0.2095
     24 H2         -4.8616    5.8315   16.3754 H           1 PGI       0.0589
     25 H3         -3.9625    6.0485   17.8956 H           1 PGI       0.0589
     26 H4         -2.1559    6.9118   16.8236 H           1 PGI       0.0699
     27 H5         -4.0977    8.6096   15.2057 H           1 PGI       0.0654
     28 H6         -3.6906    9.9436   16.7075 H           1 PGI       0.2100
     29 H7         -1.0377    8.5942   14.9582 H           1 PGI       0.0675
     30 H8         -1.2145   10.4485   14.0707 H           1 PGI       0.2103
     31 H9         -3.0848    8.0336   12.7446 H           1 PGI       0.0858
     32 H10        -0.3027    7.5938   13.0010 H           1 PGI       0.2138
     33 H11        -3.0255    4.1028   15.9089 H           1 PGI       0.0663
     34 H12        -2.1330    2.7984   12.3230 H           1 PGI       0.0392
     35 H13        -3.2660    2.2888   13.5715 H           1 PGI       0.0392
     36 H14        -0.2153    2.5770   13.8799 H           1 PGI       0.0442
     37 H15        -1.0384    1.0693   13.6047 H           1 PGI       0.0442
     38 H16        -2.5806    0.1404   15.3871 H           1 PGI       0.0557
     39 H17        -2.9454   -0.1354   17.7612 H           1 PGI       0.0599
     40 H18        -0.1570    3.5130   16.1540 H           1 PGI       0.0557
     41 H19        -0.5864    3.2607   18.5153 H           1 PGI       0.0599
     42 H20        -1.9814    1.4552   19.3235 H           1 PGI       0.0559
@<TRIPOS>BOND
     1     1     2   1
     2     2     3   1
     3     3     4   1
     4     3    10   1
     5     4     5   1
     6     4     6   1
     7     6     7   1
     8     6     8   1
     9     8     9   1
    10     8    14   1
    11    10    11   1
    12    10    14   1
    13    11    12   2
    14    12    13   1
    15    12    15   1
    16    13    14   2
    17    15    16   1
    18    16    17   1
    19    17    18  ar
    20    17    20  ar
    21    18    19  ar
    22    19    22  ar
    23    20    21  ar
    24    21    22  ar
    25     1    23   1
    26     2    24   1
    27     2    25   1
    28     3    26   1
    29     4    27   1
    30     5    28   1
    31     6    29   1
    32     7    30   1
    33     8    31   1
    34     9    32   1
    35    11    33   1
    36    15    34   1
    37    15    35   1
    38    16    36   1
    39    16    37   1
    40    18    38   1
    41    19    39   1
    42    20    40   1
    43    21    41   1
    44    22    42   1
@<TRIPOS>SUBSTRUCTURE
     1  PGI      2

