@<TRIPOS>MOLECULE
2cet_ligand_027
    42    44
SMALL
GAST_HUCK
****
This file was generated by PARSER (from files_GN.cpp)

@<TRIPOS>ATOM
      1 O6          3.2610    1.4272    9.7424 O.3         1 PGI      -0.3919
      2 C6          2.9365    2.5318    8.9035 C.3         1 PGI       0.0768
      3 C5          1.3856    2.7194    8.7652 C.3         1 PGI       0.1168
      4 C4          0.8173    2.2469    7.3774 C.3         1 PGI       0.1178
      5 O4         -0.5161    1.7440    7.5411 O.3         1 PGI      -0.3858
      6 C3          0.8157    3.3883    6.3147 C.3         1 PGI       0.1252
      7 O3          2.1461    3.7058    5.9110 O.3         1 PGI      -0.3839
      8 C2          0.1056    4.6805    6.8208 C.3         1 PGI       0.1578
      9 O2         -1.3071    4.5386    6.6887 O.3         1 PGI      -0.3700
     10 N1          1.0013    4.0789    9.0719 N.pl3       1 PGI      -0.2495
     11 C8          1.1276    4.6810   10.2656 C.2         1 PGI       0.0236
     12 C7          0.5968    5.9635   10.1680 C.2         1 PGI      -0.0178
     13 N2          0.1800    6.1153    8.8991 N.2         1 PGI      -0.3315
     14 C1          0.4371    4.9698    8.2319 C.2         1 PGI       0.1427
     15 C9          0.4841    6.9944   11.2299 C.3         1 PGI      -0.0191
     16 C10         0.3871    6.4567   12.7028 C.3         1 PGI      -0.0133
     17 C14        -0.6984    7.0255   13.5498 C.ar        1 PGI      -0.0416
     18 C13        -0.4540    7.4605   14.8768 C.ar        1 PGI      -0.0602
     19 C12        -1.5146    7.9033   15.6968 C.ar        1 PGI      -0.0686
     20 C15        -2.0322    7.0239   13.0818 C.ar        1 PGI      -0.0602
     21 C16        -3.0824    7.5025   13.8808 C.ar        1 PGI      -0.0686
     22 C11        -2.8257    7.9432   15.1892 C.ar        1 PGI      -0.0687
     23 H1          2.9419    1.6858   10.6326 H           1 PGI       0.2095
     24 H2          3.4121    2.3639    7.9354 H           1 PGI       0.0589
     25 H3          3.4165    3.4137    9.3402 H           1 PGI       0.0589
     26 H4          0.9044    2.0927    9.5234 H           1 PGI       0.0699
     27 H5          1.4063    1.4057    7.0068 H           1 PGI       0.0654
     28 H6         -0.7314    1.2894    6.6971 H           1 PGI       0.2100
     29 H7          0.3062    3.0279    5.4149 H           1 PGI       0.0675
     30 H8          2.5854    4.0711    6.7067 H           1 PGI       0.2103
     31 H9          0.4200    5.5201    6.1946 H           1 PGI       0.0858
     32 H10        -1.6604    5.4413    6.8149 H           1 PGI       0.2138
     33 H11         1.5272    4.2525   11.0992 H           1 PGI       0.0663
     34 H12        -0.3813    7.6057   10.9850 H           1 PGI       0.0392
     35 H13         1.3500    7.6567   11.1486 H           1 PGI       0.0392
     36 H14         1.3651    6.5927   13.1816 H           1 PGI       0.0442
     37 H15         0.1924    5.3838   12.7114 H           1 PGI       0.0442
     38 H16         0.4883    7.4306   15.2720 H           1 PGI       0.0557
     39 H17        -1.3345    8.1939   16.6614 H           1 PGI       0.0599
     40 H18        -2.2549    6.6838   12.1446 H           1 PGI       0.0557
     41 H19        -4.0364    7.5123   13.5094 H           1 PGI       0.0599
     42 H20        -3.5994    8.2616   15.7802 H           1 PGI       0.0559
@<TRIPOS>BOND
     1     1     2   1
     2     2     3   1
     3     3     4   1
     4     3    10   1
     5     4     5   1
     6     4     6   1
     7     6     7   1
     8     6     8   1
     9     8     9   1
    10     8    14   1
    11    10    11   1
    12    10    14   1
    13    11    12   2
    14    12    13   1
    15    12    15   1
    16    13    14   2
    17    15    16   1
    18    16    17   1
    19    17    18  ar
    20    17    20  ar
    21    18    19  ar
    22    19    22  ar
    23    20    21  ar
    24    21    22  ar
    25     1    23   1
    26     2    24   1
    27     2    25   1
    28     3    26   1
    29     4    27   1
    30     5    28   1
    31     6    29   1
    32     7    30   1
    33     8    31   1
    34     9    32   1
    35    11    33   1
    36    15    34   1
    37    15    35   1
    38    16    36   1
    39    16    37   1
    40    18    38   1
    41    19    39   1
    42    20    40   1
    43    21    41   1
    44    22    42   1
@<TRIPOS>SUBSTRUCTURE
     1  PGI      2

