@<TRIPOS>MOLECULE
2cet_ligand_013
    42    44
SMALL
GAST_HUCK
****
This file was generated by PARSER (from files_GN.cpp)

@<TRIPOS>ATOM
      1 O6         -3.5127    9.8721    7.2822 O.3         1 PGI      -0.3919
      2 C6         -3.6771   10.0258    8.6926 C.3         1 PGI       0.0768
      3 C5         -2.3467   10.2760    9.4679 C.3         1 PGI       0.1168
      4 C4         -1.2331   10.8665    8.5395 C.3         1 PGI       0.1178
      5 O4         -1.5014   12.2386    8.2283 O.3         1 PGI      -0.3858
      6 C3          0.1837   10.7460    9.1840 C.3         1 PGI       0.1252
      7 O3          1.1698   11.2709    8.2888 O.3         1 PGI      -0.3839
      8 C2          0.4988    9.2617    9.5285 C.3         1 PGI       0.1578
      9 O2          1.7057    9.1719   10.2847 O.3         1 PGI      -0.3700
     10 N1         -1.8968    9.1364   10.2333 N.pl3       1 PGI      -0.2495
     11 C8         -2.5936    8.4489   11.1563 C.2         1 PGI       0.0236
     12 C7         -1.7416    7.5172   11.7444 C.2         1 PGI      -0.0178
     13 N2         -0.5360    7.6504   11.1730 N.2         1 PGI      -0.3315
     14 C1         -0.6322    8.6511   10.2759 C.2         1 PGI       0.1427
     15 C9         -2.1144    6.5437   12.7924 C.3         1 PGI      -0.0191
     16 C10        -1.2489    6.6164   14.0796 C.3         1 PGI      -0.0133
     17 C14        -0.1000    5.6648   14.0851 C.ar        1 PGI      -0.0416
     18 C13         1.2358    6.1161   13.9762 C.ar        1 PGI      -0.0602
     19 C12         2.3071    5.2040   14.0170 C.ar        1 PGI      -0.0686
     20 C15        -0.3312    4.2773   14.2565 C.ar        1 PGI      -0.0602
     21 C16         0.7398    3.3652   14.2973 C.ar        1 PGI      -0.0686
     22 C11         2.0603    3.8289   14.1805 C.ar        1 PGI      -0.0687
     23 H1         -2.9709    9.0547    7.1626 H           1 PGI       0.2095
     24 H2         -4.1743    9.1280    9.0836 H           1 PGI       0.0589
     25 H3         -4.3491   10.8706    8.8506 H           1 PGI       0.0589
     26 H4         -2.5625   11.0426   10.2163 H           1 PGI       0.0699
     27 H5         -1.2299   10.3151    7.5956 H           1 PGI       0.0654
     28 H6         -1.5244   12.7047    9.0937 H           1 PGI       0.2100
     29 H7          0.2196   11.3364   10.1095 H           1 PGI       0.0675
     30 H8          1.3610   12.1830    8.6131 H           1 PGI       0.2103
     31 H9          0.6311    8.6923    8.5994 H           1 PGI       0.0858
     32 H10         1.5795    9.7148   11.0743 H           1 PGI       0.2138
     33 H11        -3.5667    8.6180   11.4184 H           1 PGI       0.0663
     34 H12        -2.0549    5.5334   12.3638 H           1 PGI       0.0392
     35 H13        -3.1625    6.7135   13.0718 H           1 PGI       0.0392
     36 H14        -1.8812    6.3759   14.9417 H           1 PGI       0.0442
     37 H15        -0.9055    7.6403   14.2205 H           1 PGI       0.0442
     38 H16         1.4380    7.1119   13.8527 H           1 PGI       0.0557
     39 H17         3.2761    5.5393   13.9315 H           1 PGI       0.0599
     40 H18        -1.2861    3.9225   14.3611 H           1 PGI       0.0557
     41 H19         0.5568    2.3664   14.4177 H           1 PGI       0.0599
     42 H20         2.8391    3.1653   14.2105 H           1 PGI       0.0559
@<TRIPOS>BOND
     1     1     2   1
     2     2     3   1
     3     3     4   1
     4     3    10   1
     5     4     5   1
     6     4     6   1
     7     6     7   1
     8     6     8   1
     9     8     9   1
    10     8    14   1
    11    10    11   1
    12    10    14   1
    13    11    12   2
    14    12    13   1
    15    12    15   1
    16    13    14   2
    17    15    16   1
    18    16    17   1
    19    17    18  ar
    20    17    20  ar
    21    18    19  ar
    22    19    22  ar
    23    20    21  ar
    24    21    22  ar
    25     1    23   1
    26     2    24   1
    27     2    25   1
    28     3    26   1
    29     4    27   1
    30     5    28   1
    31     6    29   1
    32     7    30   1
    33     8    31   1
    34     9    32   1
    35    11    33   1
    36    15    34   1
    37    15    35   1
    38    16    36   1
    39    16    37   1
    40    18    38   1
    41    19    39   1
    42    20    40   1
    43    21    41   1
    44    22    42   1
@<TRIPOS>SUBSTRUCTURE
     1  PGI      2

