@<TRIPOS>MOLECULE
2cet_ligand_031
    42    44
SMALL
GAST_HUCK
****
This file was generated by PARSER (from files_GN.cpp)

@<TRIPOS>ATOM
      1 O6         -2.2567   10.4064   14.8319 O.3         1 PGI      -0.3919
      2 C6         -2.2529    9.3166   15.7518 C.3         1 PGI       0.0768
      3 C5         -2.3533    7.9434   15.0261 C.3         1 PGI       0.1168
      4 C4         -3.8252    7.5522   14.6572 C.3         1 PGI       0.1178
      5 O4         -3.8367    6.7320   13.4883 O.3         1 PGI      -0.3858
      6 C3         -4.5796    6.7879   15.7908 C.3         1 PGI       0.1252
      7 O3         -4.9590    7.6642   16.8414 O.3         1 PGI      -0.3839
      8 C2         -3.7707    5.5850   16.3635 C.3         1 PGI       0.1578
      9 O2         -3.9948    4.4168   15.5792 O.3         1 PGI      -0.3700
     10 N1         -1.7118    6.8983   15.7801 N.pl3       1 PGI      -0.2495
     11 C8         -0.3900    6.7361   15.9491 C.2         1 PGI       0.0236
     12 C7         -0.1955    5.5673   16.6745 C.2         1 PGI      -0.0178
     13 N2         -1.4017    5.0474   16.9412 N.2         1 PGI      -0.3315
     14 C1         -2.3189    5.8570   16.3940 C.2         1 PGI       0.1427
     15 C9          1.0893    4.9459   17.0607 C.3         1 PGI      -0.0191
     16 C10         1.2022    3.4528   16.6322 C.3         1 PGI      -0.0133
     17 C14         1.7071    3.1955   15.2528 C.ar        1 PGI      -0.0416
     18 C13         2.4968    2.0471   14.9698 C.ar        1 PGI      -0.0602
     19 C12         2.9394    1.7762   13.6631 C.ar        1 PGI      -0.0686
     20 C15         1.3530    4.0425   14.1704 C.ar        1 PGI      -0.0602
     21 C16         1.8057    3.7675   12.8601 C.ar        1 PGI      -0.0686
     22 C11         2.5997    2.6427   12.6115 C.ar        1 PGI      -0.0687
     23 H1         -1.3244   10.7087   14.7704 H           1 PGI       0.2095
     24 H2         -3.0878    9.4561   16.4382 H           1 PGI       0.0589
     25 H3         -1.3321    9.3741   16.3295 H           1 PGI       0.0589
     26 H4         -1.8038    8.0487   14.0819 H           1 PGI       0.0699
     27 H5         -4.3947    8.4501   14.4196 H           1 PGI       0.0654
     28 H6         -3.6365    7.3397   12.7420 H           1 PGI       0.2100
     29 H7         -5.5173    6.4087   15.3763 H           1 PGI       0.0675
     30 H8         -4.1841    7.7473   17.4363 H           1 PGI       0.2103
     31 H9         -4.1147    5.3760   17.3812 H           1 PGI       0.0858
     32 H10        -4.1404    3.6944   16.2315 H           1 PGI       0.2138
     33 H11         0.3454    7.3462   15.5833 H           1 PGI       0.0663
     34 H12         1.1557    5.0100   18.1503 H           1 PGI       0.0392
     35 H13         1.9241    5.5186   16.6520 H           1 PGI       0.0392
     36 H14         0.2324    2.9611   16.7360 H           1 PGI       0.0442
     37 H15         1.8568    2.9690   17.3626 H           1 PGI       0.0442
     38 H16         2.7402    1.3952   15.7184 H           1 PGI       0.0557
     39 H17         3.5044    0.9392   13.4830 H           1 PGI       0.0599
     40 H18         0.7546    4.8565   14.3143 H           1 PGI       0.0557
     41 H19         1.5505    4.3936   12.0895 H           1 PGI       0.0599
     42 H20         2.9233    2.4351   11.6560 H           1 PGI       0.0559
@<TRIPOS>BOND
     1     1     2   1
     2     2     3   1
     3     3     4   1
     4     3    10   1
     5     4     5   1
     6     4     6   1
     7     6     7   1
     8     6     8   1
     9     8     9   1
    10     8    14   1
    11    10    11   1
    12    10    14   1
    13    11    12   2
    14    12    13   1
    15    12    15   1
    16    13    14   2
    17    15    16   1
    18    16    17   1
    19    17    18  ar
    20    17    20  ar
    21    18    19  ar
    22    19    22  ar
    23    20    21  ar
    24    21    22  ar
    25     1    23   1
    26     2    24   1
    27     2    25   1
    28     3    26   1
    29     4    27   1
    30     5    28   1
    31     6    29   1
    32     7    30   1
    33     8    31   1
    34     9    32   1
    35    11    33   1
    36    15    34   1
    37    15    35   1
    38    16    36   1
    39    16    37   1
    40    18    38   1
    41    19    39   1
    42    20    40   1
    43    21    41   1
    44    22    42   1
@<TRIPOS>SUBSTRUCTURE
     1  PGI      2

