@<TRIPOS>MOLECULE
2cet_ligand_019
    42    44
SMALL
GAST_HUCK
****
This file was generated by PARSER (from files_GN.cpp)

@<TRIPOS>ATOM
      1 O6         -0.7027   10.1754   12.4525 O.3         1 PGI      -0.3919
      2 C6         -0.6740   11.2072   11.4683 C.3         1 PGI       0.0768
      3 C5          0.2024   10.8949   10.2130 C.3         1 PGI       0.1168
      4 C4         -0.2201   11.7414    8.9622 C.3         1 PGI       0.1178
      5 O4          0.8852   11.8423    8.0581 O.3         1 PGI      -0.3858
      6 C3         -1.4233   11.1133    8.1886 C.3         1 PGI       0.1252
      7 O3         -2.6502   11.2136    8.9140 O.3         1 PGI      -0.3839
      8 C2         -1.1784    9.6182    7.8302 C.3         1 PGI       0.1578
      9 O2         -0.4570    9.5541    6.6062 O.3         1 PGI      -0.3700
     10 N1          0.2171    9.4872    9.9062 N.pl3       1 PGI      -0.2495
     11 C8          0.8548    8.5187   10.5884 C.2         1 PGI       0.0236
     12 C7          0.5786    7.3031    9.9724 C.2         1 PGI      -0.0178
     13 N2         -0.1890    7.5701    8.9050 N.2         1 PGI      -0.3315
     14 C1         -0.4106    8.8974    8.8689 C.2         1 PGI       0.1427
     15 C9          0.9633    5.9287   10.3674 C.3         1 PGI      -0.0191
     16 C10         1.7708    5.7647   11.6856 C.3         1 PGI      -0.0133
     17 C14         1.0932    5.9911   13.0028 C.ar        1 PGI      -0.0416
     18 C13         1.8447    5.7555   14.1828 C.ar        1 PGI      -0.0602
     19 C12         1.2749    5.9250   15.4580 C.ar        1 PGI      -0.0686
     20 C15        -0.2520    6.4094   13.1520 C.ar        1 PGI      -0.0602
     21 C16        -0.8210    6.5949   14.4264 C.ar        1 PGI      -0.0686
     22 C11        -0.0592    6.3475   15.5821 C.ar        1 PGI      -0.0687
     23 H1          0.2326    9.9893   12.6602 H           1 PGI       0.2095
     24 H2         -0.3083   12.1249   11.9325 H           1 PGI       0.0589
     25 H3         -1.7107   11.3719   11.1903 H           1 PGI       0.0589
     26 H4          1.2311   11.1807   10.4598 H           1 PGI       0.0699
     27 H5         -0.4794   12.7624    9.2595 H           1 PGI       0.0654
     28 H6          1.4133   12.6073    8.3710 H           1 PGI       0.2100
     29 H7         -1.5730   11.6801    7.2645 H           1 PGI       0.0675
     30 H8         -2.5742   12.0213    9.4653 H           1 PGI       0.2103
     31 H9         -2.1385    9.1148    7.6845 H           1 PGI       0.0858
     32 H10        -0.5767    8.6310    6.3146 H           1 PGI       0.2138
     33 H11         1.4281    8.6521   11.4247 H           1 PGI       0.0663
     34 H12         1.5570    5.5160    9.5449 H           1 PGI       0.0392
     35 H13         0.0564    5.3249   10.4421 H           1 PGI       0.0392
     36 H14         2.6434    6.4231   11.6315 H           1 PGI       0.0442
     37 H15         2.1470    4.7367   11.6898 H           1 PGI       0.0442
     38 H16         2.8189    5.4489   14.1229 H           1 PGI       0.0557
     39 H17         1.8292    5.7346   16.2968 H           1 PGI       0.0599
     40 H18        -0.8361    6.5899   12.3336 H           1 PGI       0.0557
     41 H19        -1.7925    6.8993   14.5169 H           1 PGI       0.0599
     42 H20        -0.4754    6.4711   16.5074 H           1 PGI       0.0559
@<TRIPOS>BOND
     1     1     2   1
     2     2     3   1
     3     3     4   1
     4     3    10   1
     5     4     5   1
     6     4     6   1
     7     6     7   1
     8     6     8   1
     9     8     9   1
    10     8    14   1
    11    10    11   1
    12    10    14   1
    13    11    12   2
    14    12    13   1
    15    12    15   1
    16    13    14   2
    17    15    16   1
    18    16    17   1
    19    17    18  ar
    20    17    20  ar
    21    18    19  ar
    22    19    22  ar
    23    20    21  ar
    24    21    22  ar
    25     1    23   1
    26     2    24   1
    27     2    25   1
    28     3    26   1
    29     4    27   1
    30     5    28   1
    31     6    29   1
    32     7    30   1
    33     8    31   1
    34     9    32   1
    35    11    33   1
    36    15    34   1
    37    15    35   1
    38    16    36   1
    39    16    37   1
    40    18    38   1
    41    19    39   1
    42    20    40   1
    43    21    41   1
    44    22    42   1
@<TRIPOS>SUBSTRUCTURE
     1  PGI      2

