@<TRIPOS>MOLECULE
2cet_ligand_002
    42    44
SMALL
GAST_HUCK
****
This file was generated by PARSER (from files_GN.cpp)

@<TRIPOS>ATOM
      1 O6         -3.9286    9.3167    6.9236 O.3         1 PGI      -0.3919
      2 C6         -3.3273    8.9323    8.1517 C.3         1 PGI       0.0768
      3 C5         -2.5431   10.1014    8.8028 C.3         1 PGI       0.1168
      4 C4         -1.3219   10.5116    7.9036 C.3         1 PGI       0.1178
      5 O4         -1.7422   11.1483    6.6993 O.3         1 PGI      -0.3858
      6 C3         -0.3741   11.4661    8.6663 C.3         1 PGI       0.1252
      7 O3          0.7178   11.8462    7.8278 O.3         1 PGI      -0.3839
      8 C2          0.1666   10.8182    9.9785 C.3         1 PGI       0.1578
      9 O2          0.6664   11.8495   10.8352 O.3         1 PGI      -0.3700
     10 N1         -2.1127    9.7848   10.1497 N.pl3       1 PGI      -0.2495
     11 C8         -2.8312    9.2233   11.1458 C.2         1 PGI       0.0236
     12 C7         -1.9994    9.0274   12.2385 C.2         1 PGI      -0.0178
     13 N2         -0.8063    9.5535   11.9209 N.2         1 PGI      -0.3315
     14 C1         -0.8969   10.0557   10.6725 C.2         1 PGI       0.1427
     15 C9         -2.3194    8.4380   13.5579 C.3         1 PGI      -0.0191
     16 C10        -3.3138    7.2511   13.5033 C.3         1 PGI      -0.0133
     17 C14        -3.5162    6.5940   14.8263 C.ar        1 PGI      -0.0416
     18 C13        -3.0554    5.2771   15.0571 C.ar        1 PGI      -0.0602
     19 C12        -3.2538    4.6474   16.2952 C.ar        1 PGI      -0.0686
     20 C15        -4.1880    7.2649   15.8702 C.ar        1 PGI      -0.0602
     21 C16        -4.3942    6.6373   17.1204 C.ar        1 PGI      -0.0686
     22 C11        -3.9259    5.3291   17.3331 C.ar        1 PGI      -0.0687
     23 H1         -4.4876   10.0923    7.1462 H           1 PGI       0.2095
     24 H2         -2.6735    8.0799    7.9756 H           1 PGI       0.0589
     25 H3         -4.1378    8.6063    8.7980 H           1 PGI       0.0589
     26 H4         -3.2162   10.9591    8.8826 H           1 PGI       0.0699
     27 H5         -0.7526    9.6215    7.6232 H           1 PGI       0.0654
     28 H6         -2.1988   10.4560    6.1820 H           1 PGI       0.2100
     29 H7         -0.9323   12.3745    8.9175 H           1 PGI       0.0675
     30 H8          1.1289   12.6311    8.2501 H           1 PGI       0.2103
     31 H9          0.9844   10.1272    9.7542 H           1 PGI       0.0858
     32 H10        -0.0996   12.4466   10.9877 H           1 PGI       0.2138
     33 H11        -3.8202    8.9715   11.1005 H           1 PGI       0.0663
     34 H12        -2.7332    9.2328   14.1782 H           1 PGI       0.0392
     35 H13        -1.3878    8.1062   14.0240 H           1 PGI       0.0392
     36 H14        -2.9537    6.5246   12.7698 H           1 PGI       0.0442
     37 H15        -4.2812    7.6047   13.1508 H           1 PGI       0.0442
     38 H16        -2.5621    4.7598   14.3239 H           1 PGI       0.0557
     39 H17        -2.9116    3.6951   16.4555 H           1 PGI       0.0599
     40 H18        -4.5393    8.2141   15.7403 H           1 PGI       0.0557
     41 H19        -4.8836    7.1292   17.8723 H           1 PGI       0.0599
     42 H20        -4.0712    4.8757   18.2410 H           1 PGI       0.0559
@<TRIPOS>BOND
     1     1     2   1
     2     2     3   1
     3     3     4   1
     4     3    10   1
     5     4     5   1
     6     4     6   1
     7     6     7   1
     8     6     8   1
     9     8     9   1
    10     8    14   1
    11    10    11   1
    12    10    14   1
    13    11    12   2
    14    12    13   1
    15    12    15   1
    16    13    14   2
    17    15    16   1
    18    16    17   1
    19    17    18  ar
    20    17    20  ar
    21    18    19  ar
    22    19    22  ar
    23    20    21  ar
    24    21    22  ar
    25     1    23   1
    26     2    24   1
    27     2    25   1
    28     3    26   1
    29     4    27   1
    30     5    28   1
    31     6    29   1
    32     7    30   1
    33     8    31   1
    34     9    32   1
    35    11    33   1
    36    15    34   1
    37    15    35   1
    38    16    36   1
    39    16    37   1
    40    18    38   1
    41    19    39   1
    42    20    40   1
    43    21    41   1
    44    22    42   1
@<TRIPOS>SUBSTRUCTURE
     1  PGI      2

