@<TRIPOS>MOLECULE
2cet_ligand_004
    42    44
SMALL
GAST_HUCK
****
This file was generated by PARSER (from files_GN.cpp)

@<TRIPOS>ATOM
      1 O6          1.3103   11.7012    8.1469 O.3         1 PGI      -0.3919
      2 C6          0.1831   11.7496    9.0223 C.3         1 PGI       0.0768
      3 C5         -0.7382   10.4981    8.8041 C.3         1 PGI       0.1168
      4 C4         -1.9009   10.8127    7.7939 C.3         1 PGI       0.1178
      5 O4         -1.4149   10.9555    6.4601 O.3         1 PGI      -0.3858
      6 C3         -2.9993    9.7166    7.8395 C.3         1 PGI       0.1252
      7 O3         -4.0349   10.0013    6.8945 O.3         1 PGI      -0.3839
      8 C2         -3.5796    9.5849    9.2740 C.3         1 PGI       0.1578
      9 O2         -4.4024    8.4254    9.3230 O.3         1 PGI      -0.3700
     10 N1         -1.2303    9.9315   10.0431 N.pl3       1 PGI      -0.2495
     11 C8         -0.5193    9.6096   11.1431 C.2         1 PGI       0.0236
     12 C7         -1.3902    9.0595   12.0759 C.2         1 PGI      -0.0178
     13 N2         -2.6008    8.9886   11.5088 N.2         1 PGI      -0.3315
     14 C1         -2.4943    9.5107   10.2732 C.2         1 PGI       0.1427
     15 C9         -1.0586    8.5924   13.4358 C.3         1 PGI      -0.0191
     16 C10        -0.9450    7.0488   13.5711 C.3         1 PGI      -0.0133
     17 C14         0.3104    6.4902   12.9920 C.ar        1 PGI      -0.0416
     18 C13         0.4564    6.3309   11.5938 C.ar        1 PGI      -0.0602
     19 C12         1.6526    5.8339   11.0457 C.ar        1 PGI      -0.0686
     20 C15         1.3879    6.1198   13.8298 C.ar        1 PGI      -0.0602
     21 C16         2.5836    5.6095   13.2803 C.ar        1 PGI      -0.0686
     22 C11         2.7182    5.4719   11.8939 C.ar        1 PGI      -0.0687
     23 H1          1.8892   12.4420    8.4214 H           1 PGI       0.2095
     24 H2         -0.3395   12.6868    8.8207 H           1 PGI       0.0589
     25 H3          0.5551   11.8168   10.0402 H           1 PGI       0.0589
     26 H4         -0.1300    9.7043    8.3598 H           1 PGI       0.0699
     27 H5         -2.3659   11.7635    8.0736 H           1 PGI       0.0654
     28 H6         -1.4101   10.0523    6.0865 H           1 PGI       0.2100
     29 H7         -2.5497    8.7637    7.5472 H           1 PGI       0.0675
     30 H8         -4.8144   10.2757    7.4162 H           1 PGI       0.2103
     31 H9         -4.1838   10.4641    9.4925 H           1 PGI       0.0858
     32 H10        -5.2157    8.7048    9.7939 H           1 PGI       0.2138
     33 H11         0.4873    9.7433   11.2748 H           1 PGI       0.0663
     34 H12        -1.8435    8.9485   14.1089 H           1 PGI       0.0392
     35 H13        -0.1231    9.0488   13.7686 H           1 PGI       0.0392
     36 H14        -1.8101    6.5659   13.1062 H           1 PGI       0.0442
     37 H15        -0.9998    6.8111   14.6403 H           1 PGI       0.0442
     38 H16        -0.3076    6.5785   10.9599 H           1 PGI       0.0557
     39 H17         1.7510    5.7335   10.0332 H           1 PGI       0.0599
     40 H18         1.3205    6.2251   14.8433 H           1 PGI       0.0557
     41 H19         3.3574    5.3531   13.9003 H           1 PGI       0.0599
     42 H20         3.5888    5.1119   11.4946 H           1 PGI       0.0559
@<TRIPOS>BOND
     1     1     2   1
     2     2     3   1
     3     3     4   1
     4     3    10   1
     5     4     5   1
     6     4     6   1
     7     6     7   1
     8     6     8   1
     9     8     9   1
    10     8    14   1
    11    10    11   1
    12    10    14   1
    13    11    12   2
    14    12    13   1
    15    12    15   1
    16    13    14   2
    17    15    16   1
    18    16    17   1
    19    17    18  ar
    20    17    20  ar
    21    18    19  ar
    22    19    22  ar
    23    20    21  ar
    24    21    22  ar
    25     1    23   1
    26     2    24   1
    27     2    25   1
    28     3    26   1
    29     4    27   1
    30     5    28   1
    31     6    29   1
    32     7    30   1
    33     8    31   1
    34     9    32   1
    35    11    33   1
    36    15    34   1
    37    15    35   1
    38    16    36   1
    39    16    37   1
    40    18    38   1
    41    19    39   1
    42    20    40   1
    43    21    41   1
    44    22    42   1
@<TRIPOS>SUBSTRUCTURE
     1  PGI      2

