@<TRIPOS>MOLECULE
2cet_ligand_001
    42    44
SMALL
GAST_HUCK
****
This file was generated by PARSER (from files_GN.cpp)

@<TRIPOS>ATOM
      1 O6          0.8815   12.6107   10.3166 O.3         1 PGI      -0.3919
      2 C6          0.4442   11.3257   10.7583 C.3         1 PGI       0.0768
      3 C5         -0.3766   10.4670    9.7419 C.3         1 PGI       0.1168
      4 C4         -0.8611   11.2810    8.4965 C.3         1 PGI       0.1178
      5 O4          0.2562   11.6011    7.6635 O.3         1 PGI      -0.3858
      6 C3         -1.8961   10.4556    7.6889 C.3         1 PGI       0.1252
      7 O3         -2.2618   11.1664    6.5066 O.3         1 PGI      -0.3839
      8 C2         -3.1446   10.1299    8.5635 C.3         1 PGI       0.1578
      9 O2         -3.9678    9.1789    7.8963 O.3         1 PGI      -0.3700
     10 N1         -1.4762    9.7684   10.3757 N.pl3       1 PGI      -0.2495
     11 C8         -1.4353    9.1105   11.5432 C.2         1 PGI       0.0236
     12 C7         -2.6857    8.5689   11.7957 C.2         1 PGI      -0.0178
     13 N2         -3.4772    8.8975   10.7504 N.2         1 PGI      -0.3315
     14 C1         -2.7205    9.6039    9.8833 C.2         1 PGI       0.1427
     15 C9         -3.0778    7.7798   12.9883 C.3         1 PGI      -0.0191
     16 C10        -2.4604    6.3387   13.0329 C.3         1 PGI      -0.0133
     17 C14        -1.4714    6.0822   14.1198 C.ar        1 PGI      -0.0416
     18 C13        -1.6911    5.0823   15.1031 C.ar        1 PGI      -0.0602
     19 C12        -0.7241    4.8023   16.0863 C.ar        1 PGI      -0.0686
     20 C15        -0.2372    6.7823   14.1699 C.ar        1 PGI      -0.0602
     21 C16         0.7213    6.5261   15.1687 C.ar        1 PGI      -0.0686
     22 C11         0.4781    5.5238   16.1223 C.ar        1 PGI      -0.0687
     23 H1          0.0766   13.1737   10.3193 H           1 PGI       0.2095
     24 H2         -0.1196   11.4890   11.6749 H           1 PGI       0.0589
     25 H3          1.3489   10.7734   11.0160 H           1 PGI       0.0589
     26 H4          0.2911    9.6823    9.3597 H           1 PGI       0.0699
     27 H5         -1.3342   12.2111    8.8334 H           1 PGI       0.0654
     28 H6         -0.0371   12.3387    7.0862 H           1 PGI       0.2100
     29 H7         -1.4246    9.5185    7.3714 H           1 PGI       0.0675
     30 H8         -2.5669   10.4705    5.8878 H           1 PGI       0.2103
     31 H9         -3.7329   11.0383    8.7318 H           1 PGI       0.0858
     32 H10        -4.3729    9.6752    7.1482 H           1 PGI       0.2138
     33 H11        -0.6215    9.0599   12.1605 H           1 PGI       0.0663
     34 H12        -4.1650    7.6924   12.9861 H           1 PGI       0.0392
     35 H13        -2.8108    8.3483   13.8833 H           1 PGI       0.0392
     36 H14        -1.9766    6.1010   12.0820 H           1 PGI       0.0442
     37 H15        -3.2898    5.6336   13.1304 H           1 PGI       0.0442
     38 H16        -2.5575    4.5365   15.0953 H           1 PGI       0.0557
     39 H17        -0.8951    4.0632   16.7752 H           1 PGI       0.0599
     40 H18        -0.0107    7.4728   13.4617 H           1 PGI       0.0557
     41 H19         1.5914    7.0553   15.1858 H           1 PGI       0.0599
     42 H20         1.1799    5.3216   16.8336 H           1 PGI       0.0559
@<TRIPOS>BOND
     1     1     2   1
     2     2     3   1
     3     3     4   1
     4     3    10   1
     5     4     5   1
     6     4     6   1
     7     6     7   1
     8     6     8   1
     9     8     9   1
    10     8    14   1
    11    10    11   1
    12    10    14   1
    13    11    12   2
    14    12    13   1
    15    12    15   1
    16    13    14   2
    17    15    16   1
    18    16    17   1
    19    17    18  ar
    20    17    20  ar
    21    18    19  ar
    22    19    22  ar
    23    20    21  ar
    24    21    22  ar
    25     1    23   1
    26     2    24   1
    27     2    25   1
    28     3    26   1
    29     4    27   1
    30     5    28   1
    31     6    29   1
    32     7    30   1
    33     8    31   1
    34     9    32   1
    35    11    33   1
    36    15    34   1
    37    15    35   1
    38    16    36   1
    39    16    37   1
    40    18    38   1
    41    19    39   1
    42    20    40   1
    43    21    41   1
    44    22    42   1
@<TRIPOS>SUBSTRUCTURE
     1  PGI      2

