@<TRIPOS>MOLECULE
2cet_ligand_034
    42    44
SMALL
GAST_HUCK
****
This file was generated by PARSER (from files_GN.cpp)

@<TRIPOS>ATOM
      1 O6         -3.8181    4.2092   14.0918 O.3         1 PGI      -0.3919
      2 C6         -2.9760    3.9154   15.2044 C.3         1 PGI       0.0768
      3 C5         -2.7388    5.1660   16.1003 C.3         1 PGI       0.1168
      4 C4         -4.1053    5.7243   16.6217 C.3         1 PGI       0.1178
      5 O4         -4.6050    4.9011   17.6778 O.3         1 PGI      -0.3858
      6 C3         -3.9648    7.1788   17.1362 C.3         1 PGI       0.1252
      7 O3         -5.2304    7.6504   17.5982 O.3         1 PGI      -0.3839
      8 C2         -3.4152    8.1201   16.0291 C.3         1 PGI       0.1578
      9 O2         -3.0061    9.3624   16.6085 O.3         1 PGI      -0.3700
     10 N1         -1.9621    6.1802   15.4278 N.pl3       1 PGI      -0.2495
     11 C8         -0.7663    6.0264   14.8437 C.2         1 PGI       0.0236
     12 C7         -0.3869    7.2515   14.2939 C.2         1 PGI      -0.0178
     13 N2         -1.3234    8.1460   14.6320 N.2         1 PGI      -0.3315
     14 C1         -2.2637    7.4921   15.3421 C.2         1 PGI       0.1427
     15 C9          0.8840    7.5462   13.5999 C.3         1 PGI      -0.0191
     16 C10         1.2707    6.5520   12.4558 C.3         1 PGI      -0.0133
     17 C14         0.9006    6.9656   11.0737 C.ar        1 PGI      -0.0416
     18 C13        -0.4518    7.1669   10.7079 C.ar        1 PGI      -0.0602
     19 C12        -0.7903    7.5417    9.3936 C.ar        1 PGI      -0.0686
     20 C15         1.8988    7.1114   10.0793 C.ar        1 PGI      -0.0602
     21 C16         1.5599    7.4689    8.7640 C.ar        1 PGI      -0.0686
     22 C11         0.2154    7.6965    8.4221 C.ar        1 PGI      -0.0687
     23 H1         -4.1092    3.3456   13.7526 H           1 PGI       0.2095
     24 H2         -2.0258    3.5335   14.8234 H           1 PGI       0.0589
     25 H3         -3.4392    3.1157   15.7930 H           1 PGI       0.0589
     26 H4         -2.1533    4.8457   16.9672 H           1 PGI       0.0699
     27 H5         -4.8388    5.7417   15.8082 H           1 PGI       0.0654
     28 H6         -5.4595    4.5538   17.3364 H           1 PGI       0.2100
     29 H7         -3.2697    7.1706   17.9824 H           1 PGI       0.0675
     30 H8         -5.4861    7.0684   18.3464 H           1 PGI       0.2103
     31 H9         -4.1846    8.3195   15.2819 H           1 PGI       0.0858
     32 H10        -3.6969   10.0056   16.3557 H           1 PGI       0.2138
     33 H11        -0.2244    5.1585   14.7987 H           1 PGI       0.0663
     34 H12         1.6519    7.5027   14.3716 H           1 PGI       0.0392
     35 H13         0.8705    8.5716   13.2277 H           1 PGI       0.0392
     36 H14         0.8321    5.5622   12.6168 H           1 PGI       0.0442
     37 H15         2.3548    6.3967   12.5232 H           1 PGI       0.0442
     38 H16        -1.1996    7.0522   11.3957 H           1 PGI       0.0557
     39 H17        -1.7692    7.6929    9.1383 H           1 PGI       0.0599
     40 H18         2.8828    6.9516   10.3058 H           1 PGI       0.0557
     41 H19         2.2886    7.5561    8.0525 H           1 PGI       0.0599
     42 H20        -0.0268    7.9625    7.4673 H           1 PGI       0.0559
@<TRIPOS>BOND
     1     1     2   1
     2     2     3   1
     3     3     4   1
     4     3    10   1
     5     4     5   1
     6     4     6   1
     7     6     7   1
     8     6     8   1
     9     8     9   1
    10     8    14   1
    11    10    11   1
    12    10    14   1
    13    11    12   2
    14    12    13   1
    15    12    15   1
    16    13    14   2
    17    15    16   1
    18    16    17   1
    19    17    18  ar
    20    17    20  ar
    21    18    19  ar
    22    19    22  ar
    23    20    21  ar
    24    21    22  ar
    25     1    23   1
    26     2    24   1
    27     2    25   1
    28     3    26   1
    29     4    27   1
    30     5    28   1
    31     6    29   1
    32     7    30   1
    33     8    31   1
    34     9    32   1
    35    11    33   1
    36    15    34   1
    37    15    35   1
    38    16    36   1
    39    16    37   1
    40    18    38   1
    41    19    39   1
    42    20    40   1
    43    21    41   1
    44    22    42   1
@<TRIPOS>SUBSTRUCTURE
     1  PGI      2

