@<TRIPOS>MOLECULE
2cet_ligand_028
    42    44
SMALL
GAST_HUCK
****
This file was generated by PARSER (from files_GN.cpp)

@<TRIPOS>ATOM
      1 O6         -3.7805    9.9173    7.1212 O.3         1 PGI      -0.3919
      2 C6         -2.6531    9.3507    7.7856 C.3         1 PGI       0.0768
      3 C5         -2.2466   10.1235    9.0717 C.3         1 PGI       0.1168
      4 C4         -2.0748   11.6637    8.8524 C.3         1 PGI       0.1178
      5 O4         -2.2707   12.3221   10.1023 O.3         1 PGI      -0.3858
      6 C3         -0.6815   12.0630    8.2821 C.3         1 PGI       0.1252
      7 O3         -0.5853   11.6564    6.9155 O.3         1 PGI      -0.3839
      8 C2          0.4948   11.4713    9.1196 C.3         1 PGI       0.1578
      9 O2          0.8633   12.3374   10.1984 O.3         1 PGI      -0.3700
     10 N1         -1.0462    9.5507    9.6361 N.pl3       1 PGI      -0.2495
     11 C8         -0.9220    8.3430   10.2059 C.2         1 PGI       0.0236
     12 C7          0.3992    8.1895   10.5985 C.2         1 PGI      -0.0178
     13 N2          1.0564    9.3016   10.2448 N.2         1 PGI      -0.3315
     14 C1          0.1755   10.1329    9.6673 C.2         1 PGI       0.1427
     15 C9          1.0043    6.9969   11.2302 C.3         1 PGI      -0.0191
     16 C10         2.1500    6.3629   10.3980 C.3         1 PGI      -0.0133
     17 C14         1.6888    5.6823    9.1533 C.ar        1 PGI      -0.0416
     18 C13         1.3492    6.4373    8.0060 C.ar        1 PGI      -0.0602
     19 C12         0.9276    5.7999    6.8224 C.ar        1 PGI      -0.0686
     20 C15         1.6113    4.2723    9.0816 C.ar        1 PGI      -0.0602
     21 C16         1.1928    3.6335    7.8942 C.ar        1 PGI      -0.0686
     22 C11         0.8475    4.3977    6.7691 C.ar        1 PGI      -0.0687
     23 H1         -4.5175    9.8690    7.7572 H           1 PGI       0.2095
     24 H2         -1.8105    9.3373    7.0904 H           1 PGI       0.0589
     25 H3         -2.9020    8.3169    8.0381 H           1 PGI       0.0589
     26 H4         -3.0639    9.9843    9.7944 H           1 PGI       0.0699
     27 H5         -2.8504   12.0426    8.1897 H           1 PGI       0.0654
     28 H6         -1.6888   11.8577   10.7445 H           1 PGI       0.2100
     29 H7         -0.6132   13.1526    8.2790 H           1 PGI       0.0675
     30 H8          0.0519   12.2791    6.4959 H           1 PGI       0.2103
     31 H9          1.3775   11.3768    8.4864 H           1 PGI       0.0858
     32 H10         0.1279   12.9862   10.3149 H           1 PGI       0.2138
     33 H11        -1.6676    7.6494   10.3302 H           1 PGI       0.0663
     34 H12         0.2367    6.2411   11.4159 H           1 PGI       0.0392
     35 H13         1.4009    7.3046   12.2021 H           1 PGI       0.0392
     36 H14         2.6663    5.6448   11.0471 H           1 PGI       0.0442
     37 H15         2.8915    7.1252   10.1417 H           1 PGI       0.0442
     38 H16         1.4179    7.4564    8.0153 H           1 PGI       0.0557
     39 H17         0.6839    6.3569    5.9981 H           1 PGI       0.0599
     40 H18         1.8603    3.6952    9.8878 H           1 PGI       0.0557
     41 H19         1.1426    2.6133    7.8556 H           1 PGI       0.0599
     42 H20         0.5417    3.9361    5.9084 H           1 PGI       0.0559
@<TRIPOS>BOND
     1     1     2   1
     2     2     3   1
     3     3     4   1
     4     3    10   1
     5     4     5   1
     6     4     6   1
     7     6     7   1
     8     6     8   1
     9     8     9   1
    10     8    14   1
    11    10    11   1
    12    10    14   1
    13    11    12   2
    14    12    13   1
    15    12    15   1
    16    13    14   2
    17    15    16   1
    18    16    17   1
    19    17    18  ar
    20    17    20  ar
    21    18    19  ar
    22    19    22  ar
    23    20    21  ar
    24    21    22  ar
    25     1    23   1
    26     2    24   1
    27     2    25   1
    28     3    26   1
    29     4    27   1
    30     5    28   1
    31     6    29   1
    32     7    30   1
    33     8    31   1
    34     9    32   1
    35    11    33   1
    36    15    34   1
    37    15    35   1
    38    16    36   1
    39    16    37   1
    40    18    38   1
    41    19    39   1
    42    20    40   1
    43    21    41   1
    44    22    42   1
@<TRIPOS>SUBSTRUCTURE
     1  PGI      2

