@<TRIPOS>MOLECULE
2cet_ligand_015
    42    44
SMALL
GAST_HUCK
****
This file was generated by PARSER (from files_GN.cpp)

@<TRIPOS>ATOM
      1 O6         -2.1183    9.9728   14.3149 O.3         1 PGI      -0.3919
      2 C6         -2.4628    9.2705   15.5077 C.3         1 PGI       0.0768
      3 C5         -3.0510    7.8558   15.2119 C.3         1 PGI       0.1168
      4 C4         -3.5860    7.2264   16.5426 C.3         1 PGI       0.1178
      5 O4         -4.8057    7.8540   16.9441 O.3         1 PGI      -0.3858
      6 C3         -3.8159    5.7006   16.3979 C.3         1 PGI       0.1252
      7 O3         -4.3115    5.1571   17.6218 O.3         1 PGI      -0.3839
      8 C2         -2.5045    4.9717   15.9881 C.3         1 PGI       0.1578
      9 O2         -2.8216    3.6459   15.5679 O.3         1 PGI      -0.3700
     10 N1         -2.1003    6.9760   14.5492 N.pl3       1 PGI      -0.2495
     11 C8         -1.3721    7.2256   13.4455 C.2         1 PGI       0.0236
     12 C7         -0.5859    6.1147   13.1674 C.2         1 PGI      -0.0178
     13 N2         -0.8850    5.1742   14.0751 N.2         1 PGI      -0.3315
     14 C1         -1.8217    5.6975   14.8962 C.2         1 PGI       0.1427
     15 C9          0.3931    6.0031   12.0614 C.3         1 PGI      -0.0191
     16 C10         1.8630    5.8590   12.5530 C.3         1 PGI      -0.0133
     17 C14         2.2831    4.4471   12.7463 C.ar        1 PGI      -0.0416
     18 C13         2.6831    3.6686   11.6319 C.ar        1 PGI      -0.0602
     19 C12         3.0980    2.3365   11.7970 C.ar        1 PGI      -0.0686
     20 C15         2.3024    3.8524   14.0310 C.ar        1 PGI      -0.0602
     21 C16         2.7153    2.5177   14.1959 C.ar        1 PGI      -0.0686
     22 C11         3.1140    1.7582   13.0792 C.ar        1 PGI      -0.0687
     23 H1         -1.2830   10.4553   14.5011 H           1 PGI       0.2095
     24 H2         -3.2009    9.8801   16.0314 H           1 PGI       0.0589
     25 H3         -1.5750    9.1743   16.1365 H           1 PGI       0.0589
     26 H4         -3.8953    7.9735   14.5254 H           1 PGI       0.0699
     27 H5         -2.8446    7.3758   17.3334 H           1 PGI       0.0654
     28 H6         -4.7136    7.9913   17.9109 H           1 PGI       0.2100
     29 H7         -4.5678    5.5389   15.6150 H           1 PGI       0.0675
     30 H8         -5.2127    4.8396   17.4083 H           1 PGI       0.2103
     31 H9         -1.8251    4.9124   16.8414 H           1 PGI       0.0858
     32 H10        -3.3587    3.2652   16.2958 H           1 PGI       0.2138
     33 H11        -1.3746    8.0816   12.8868 H           1 PGI       0.0663
     34 H12         0.3295    6.9063   11.4445 H           1 PGI       0.0392
     35 H13         0.1066    5.1625   11.4242 H           1 PGI       0.0392
     36 H14         2.0037    6.4340   13.4731 H           1 PGI       0.0442
     37 H15         2.5274    6.3178   11.8116 H           1 PGI       0.0442
     38 H16         2.6851    4.0767   10.6922 H           1 PGI       0.0557
     39 H17         3.3902    1.7881   10.9853 H           1 PGI       0.0599
     40 H18         2.0085    4.3869   14.8516 H           1 PGI       0.0557
     41 H19         2.7293    2.0967   15.1283 H           1 PGI       0.0599
     42 H20         3.4167    0.7896   13.1996 H           1 PGI       0.0559
@<TRIPOS>BOND
     1     1     2   1
     2     2     3   1
     3     3     4   1
     4     3    10   1
     5     4     5   1
     6     4     6   1
     7     6     7   1
     8     6     8   1
     9     8     9   1
    10     8    14   1
    11    10    11   1
    12    10    14   1
    13    11    12   2
    14    12    13   1
    15    12    15   1
    16    13    14   2
    17    15    16   1
    18    16    17   1
    19    17    18  ar
    20    17    20  ar
    21    18    19  ar
    22    19    22  ar
    23    20    21  ar
    24    21    22  ar
    25     1    23   1
    26     2    24   1
    27     2    25   1
    28     3    26   1
    29     4    27   1
    30     5    28   1
    31     6    29   1
    32     7    30   1
    33     8    31   1
    34     9    32   1
    35    11    33   1
    36    15    34   1
    37    15    35   1
    38    16    36   1
    39    16    37   1
    40    18    38   1
    41    19    39   1
    42    20    40   1
    43    21    41   1
    44    22    42   1
@<TRIPOS>SUBSTRUCTURE
     1  PGI      2

