@<TRIPOS>MOLECULE
2cet_ligand_017
    42    44
SMALL
GAST_HUCK
****
This file was generated by PARSER (from files_GN.cpp)

@<TRIPOS>ATOM
      1 O6         -4.8148    4.5300   14.2482 O.3         1 PGI      -0.3919
      2 C6         -3.8386    4.5112   15.2864 C.3         1 PGI       0.0768
      3 C5         -4.0111    5.6280   16.3659 C.3         1 PGI       0.1168
      4 C4         -4.6889    6.9430   15.8583 C.3         1 PGI       0.1178
      5 O4         -5.1938    7.6862   16.9722 O.3         1 PGI      -0.3858
      6 C3         -3.7033    7.8378   15.0526 C.3         1 PGI       0.1252
      7 O3         -3.3798    7.2150   13.8071 O.3         1 PGI      -0.3839
      8 C2         -2.3968    8.1541   15.8389 C.3         1 PGI       0.1578
      9 O2         -2.5616    9.3091   16.6566 O.3         1 PGI      -0.3700
     10 N1         -2.7283    5.9256   16.9485 N.pl3       1 PGI      -0.2495
     11 C8         -2.0125    5.1341   17.7558 C.2         1 PGI       0.0236
     12 C7         -0.8028    5.7692   17.9937 C.2         1 PGI      -0.0178
     13 N2         -0.8049    6.9367   17.3312 N.2         1 PGI      -0.3315
     14 C1         -1.9814    7.0248   16.6974 C.2         1 PGI       0.1427
     15 C9          0.3556    5.2286   18.7147 C.3         1 PGI      -0.0191
     16 C10         1.4203    4.6366   17.7423 C.3         1 PGI      -0.0133
     17 C14         1.0545    3.4048   16.9666 C.ar        1 PGI      -0.0416
     18 C13         1.4705    3.2561   15.6193 C.ar        1 PGI      -0.0602
     19 C12         1.2158    2.0727   14.9011 C.ar        1 PGI      -0.0686
     20 C15         0.3773    2.3174   17.5742 C.ar        1 PGI      -0.0602
     21 C16         0.0917    1.1430   16.8455 C.ar        1 PGI      -0.0686
     22 C11         0.5196    1.0171   15.5138 C.ar        1 PGI      -0.0687
     23 H1         -4.7934    3.6222   13.8773 H           1 PGI       0.2095
     24 H2         -2.8512    4.5744   14.8150 H           1 PGI       0.0589
     25 H3         -3.9050    3.5344   15.7703 H           1 PGI       0.0589
     26 H4         -4.6643    5.2292   17.1529 H           1 PGI       0.0699
     27 H5         -5.5574    6.7125   15.2358 H           1 PGI       0.0654
     28 H6         -4.4684    7.7641   17.6258 H           1 PGI       0.2100
     29 H7         -4.2057    8.7752   14.8080 H           1 PGI       0.0675
     30 H8         -4.1839    7.3134   13.2521 H           1 PGI       0.2103
     31 H9         -1.5991    8.3788   15.1290 H           1 PGI       0.0858
     32 H10        -3.3882    9.7373   16.3463 H           1 PGI       0.2138
     33 H11        -2.2797    4.2064   18.0906 H           1 PGI       0.0663
     34 H12         0.0287    4.4722   19.4326 H           1 PGI       0.0392
     35 H13         0.8119    6.0431   19.2910 H           1 PGI       0.0392
     36 H14         2.3140    4.4011   18.3248 H           1 PGI       0.0442
     37 H15         1.7117    5.4369   17.0547 H           1 PGI       0.0442
     38 H16         1.9939    4.0008   15.1529 H           1 PGI       0.0557
     39 H17         1.5474    1.9732   13.9401 H           1 PGI       0.0599
     40 H18         0.0928    2.3712   18.5545 H           1 PGI       0.0557
     41 H19        -0.4157    0.3756   17.2912 H           1 PGI       0.0599
     42 H20         0.3374    0.1533   14.9966 H           1 PGI       0.0559
@<TRIPOS>BOND
     1     1     2   1
     2     2     3   1
     3     3     4   1
     4     3    10   1
     5     4     5   1
     6     4     6   1
     7     6     7   1
     8     6     8   1
     9     8     9   1
    10     8    14   1
    11    10    11   1
    12    10    14   1
    13    11    12   2
    14    12    13   1
    15    12    15   1
    16    13    14   2
    17    15    16   1
    18    16    17   1
    19    17    18  ar
    20    17    20  ar
    21    18    19  ar
    22    19    22  ar
    23    20    21  ar
    24    21    22  ar
    25     1    23   1
    26     2    24   1
    27     2    25   1
    28     3    26   1
    29     4    27   1
    30     5    28   1
    31     6    29   1
    32     7    30   1
    33     8    31   1
    34     9    32   1
    35    11    33   1
    36    15    34   1
    37    15    35   1
    38    16    36   1
    39    16    37   1
    40    18    38   1
    41    19    39   1
    42    20    40   1
    43    21    41   1
    44    22    42   1
@<TRIPOS>SUBSTRUCTURE
     1  PGI      2

