@<TRIPOS>MOLECULE
2cet_ligand_020
    42    44
SMALL
GAST_HUCK
****
This file was generated by PARSER (from files_GN.cpp)

@<TRIPOS>ATOM
      1 O6          1.4325   11.5637    8.1545 O.3         1 PGI      -0.3919
      2 C6          0.4957   11.0055    9.0716 C.3         1 PGI       0.0768
      3 C5         -0.4723   10.0444    8.3041 C.3         1 PGI       0.1168
      4 C4         -1.9448   10.5810    8.2273 C.3         1 PGI       0.1178
      5 O4         -2.5619   10.1342    7.0172 O.3         1 PGI      -0.3858
      6 C3         -2.7710   10.1538    9.4751 C.3         1 PGI       0.1252
      7 O3         -2.2206   10.7702   10.6401 O.3         1 PGI      -0.3839
      8 C2         -2.7669    8.6147    9.7126 C.3         1 PGI       0.1578
      9 O2         -3.7127    7.9307    8.8809 O.3         1 PGI      -0.3700
     10 N1         -0.4282    8.6944    8.8287 N.pl3       1 PGI      -0.2495
     11 C8          0.5976    7.8315    8.7475 C.2         1 PGI       0.0236
     12 C7          0.1992    6.6350    9.3478 C.2         1 PGI      -0.0178
     13 N2         -1.0644    6.8016    9.7667 N.2         1 PGI      -0.3315
     14 C1         -1.4280    8.0542    9.4639 C.2         1 PGI       0.1427
     15 C9          0.9904    5.3900    9.4281 C.3         1 PGI      -0.0191
     16 C10         0.5383    4.4135   10.5569 C.3         1 PGI      -0.0133
     17 C14         0.9059    4.8821   11.9222 C.ar        1 PGI      -0.0416
     18 C13        -0.0779    5.2747   12.8626 C.ar        1 PGI      -0.0602
     19 C12         0.2944    5.7343   14.1416 C.ar        1 PGI      -0.0686
     20 C15         2.2679    4.9396   12.3081 C.ar        1 PGI      -0.0602
     21 C16         2.6411    5.4027   13.5826 C.ar        1 PGI      -0.0686
     22 C11         1.6530    5.8064   14.4979 C.ar        1 PGI      -0.0687
     23 H1          1.7950   12.3692    8.5848 H           1 PGI       0.2095
     24 H2         -0.0401   11.8393    9.5206 H           1 PGI       0.0589
     25 H3          1.0264   10.4905    9.8753 H           1 PGI       0.0589
     26 H4         -0.1252    9.9845    7.2618 H           1 PGI       0.0699
     27 H5         -1.9538   11.6728    8.1634 H           1 PGI       0.0654
     28 H6         -2.2960    9.2068    6.8969 H           1 PGI       0.2100
     29 H7         -3.8001   10.5021    9.3627 H           1 PGI       0.0675
     30 H8         -2.2001   11.7321   10.4480 H           1 PGI       0.2103
     31 H9         -3.0481    8.4170   10.7563 H           1 PGI       0.0858
     32 H10        -3.3274    7.9247    7.9766 H           1 PGI       0.2138
     33 H11         1.5015    8.0044    8.3080 H           1 PGI       0.0663
     34 H12         2.0443    5.6458    9.5563 H           1 PGI       0.0392
     35 H13         0.9137    4.8786    8.4677 H           1 PGI       0.0392
     36 H14         1.0121    3.4437   10.4058 H           1 PGI       0.0442
     37 H15        -0.5408    4.2384   10.4718 H           1 PGI       0.0442
     38 H16        -1.0705    5.2324   12.6249 H           1 PGI       0.0557
     39 H17        -0.4243    6.0266   14.8115 H           1 PGI       0.0599
     40 H18         3.0058    4.6495   11.6609 H           1 PGI       0.0557
     41 H19         3.6307    5.4627   13.8390 H           1 PGI       0.0599
     42 H20         1.9258    6.1541   15.4211 H           1 PGI       0.0559
@<TRIPOS>BOND
     1     1     2   1
     2     2     3   1
     3     3     4   1
     4     3    10   1
     5     4     5   1
     6     4     6   1
     7     6     7   1
     8     6     8   1
     9     8     9   1
    10     8    14   1
    11    10    11   1
    12    10    14   1
    13    11    12   2
    14    12    13   1
    15    12    15   1
    16    13    14   2
    17    15    16   1
    18    16    17   1
    19    17    18  ar
    20    17    20  ar
    21    18    19  ar
    22    19    22  ar
    23    20    21  ar
    24    21    22  ar
    25     1    23   1
    26     2    24   1
    27     2    25   1
    28     3    26   1
    29     4    27   1
    30     5    28   1
    31     6    29   1
    32     7    30   1
    33     8    31   1
    34     9    32   1
    35    11    33   1
    36    15    34   1
    37    15    35   1
    38    16    36   1
    39    16    37   1
    40    18    38   1
    41    19    39   1
    42    20    40   1
    43    21    41   1
    44    22    42   1
@<TRIPOS>SUBSTRUCTURE
     1  PGI      2

