@<TRIPOS>MOLECULE
2cet_ligand_025
    42    44
SMALL
GAST_HUCK
****
This file was generated by PARSER (from files_GN.cpp)

@<TRIPOS>ATOM
      1 O6         -5.1050    7.5374   17.2557 O.3         1 PGI      -0.3919
      2 C6         -4.2903    6.4928   16.7116 C.3         1 PGI       0.0768
      3 C5         -2.9055    6.9883   16.1960 C.3         1 PGI       0.1168
      4 C4         -2.9996    8.4174   15.5577 C.3         1 PGI       0.1178
      5 O4         -3.0082    9.4313   16.5745 O.3         1 PGI      -0.3858
      6 C3         -1.8059    8.7142   14.6107 C.3         1 PGI       0.1252
      7 O3         -1.9684   10.0013   14.0295 O.3         1 PGI      -0.3839
      8 C2         -1.6855    7.6432   13.4972 C.3         1 PGI       0.1578
      9 O2         -0.4485    7.7933   12.8108 O.3         1 PGI      -0.3700
     10 N1         -2.3088    6.0188   15.3055 N.pl3       1 PGI      -0.2495
     11 C8         -2.1028    4.7103   15.5296 C.2         1 PGI       0.0236
     12 C7         -1.4946    4.1669   14.4033 C.2         1 PGI      -0.0178
     13 N2         -1.2918    5.1690   13.5361 N.2         1 PGI      -0.3315
     14 C1         -1.7683    6.2943   14.0941 C.2         1 PGI       0.1427
     15 C9         -1.0861    2.7651   14.1868 C.3         1 PGI      -0.0191
     16 C10        -1.8456    2.0777   13.0056 C.3         1 PGI      -0.0133
     17 C14        -2.7297    0.9578   13.4441 C.ar        1 PGI      -0.0416
     18 C13        -3.9974    1.2137   14.0170 C.ar        1 PGI      -0.0602
     19 C12        -4.8103    0.1545   14.4637 C.ar        1 PGI      -0.0686
     20 C15        -2.3042   -0.3864   13.3152 C.ar        1 PGI      -0.0602
     21 C16        -3.1171   -1.4460   13.7598 C.ar        1 PGI      -0.0686
     22 C11        -4.3655   -1.1748   14.3451 C.ar        1 PGI      -0.0687
     23 H1         -4.7091    7.7746   18.1333 H           1 PGI       0.2095
     24 H2         -4.8441    6.0493   15.8710 H           1 PGI       0.0589
     25 H3         -4.1416    5.7246   17.4918 H           1 PGI       0.0589
     26 H4         -2.2527    7.0639   17.0686 H           1 PGI       0.0699
     27 H5         -3.9296    8.4870   14.9746 H           1 PGI       0.0654
     28 H6         -3.8813    9.8820   16.4818 H           1 PGI       0.2100
     29 H7         -0.8934    8.7279   15.2008 H           1 PGI       0.0675
     30 H8         -1.0652   10.3754   13.9075 H           1 PGI       0.2103
     31 H9         -2.4958    7.7548   12.7758 H           1 PGI       0.0858
     32 H10         0.2497    7.7010   13.4947 H           1 PGI       0.2138
     33 H11        -2.3668    4.1880   16.3607 H           1 PGI       0.0663
     34 H12        -1.2180    2.1955   15.1076 H           1 PGI       0.0392
     35 H13        -0.0157    2.7576   13.9821 H           1 PGI       0.0392
     36 H14        -1.1053    1.7096   12.2891 H           1 PGI       0.0442
     37 H15        -2.4575    2.8009   12.4516 H           1 PGI       0.0442
     38 H16        -4.3373    2.1726   14.1178 H           1 PGI       0.0557
     39 H17        -5.7243    0.3462   14.8784 H           1 PGI       0.0599
     40 H18        -1.3917   -0.6043   12.9039 H           1 PGI       0.0557
     41 H19        -2.7898   -2.4106   13.6699 H           1 PGI       0.0599
     42 H20        -4.9508   -1.9455   14.6757 H           1 PGI       0.0559
@<TRIPOS>BOND
     1     1     2   1
     2     2     3   1
     3     3     4   1
     4     3    10   1
     5     4     5   1
     6     4     6   1
     7     6     7   1
     8     6     8   1
     9     8     9   1
    10     8    14   1
    11    10    11   1
    12    10    14   1
    13    11    12   2
    14    12    13   1
    15    12    15   1
    16    13    14   2
    17    15    16   1
    18    16    17   1
    19    17    18  ar
    20    17    20  ar
    21    18    19  ar
    22    19    22  ar
    23    20    21  ar
    24    21    22  ar
    25     1    23   1
    26     2    24   1
    27     2    25   1
    28     3    26   1
    29     4    27   1
    30     5    28   1
    31     6    29   1
    32     7    30   1
    33     8    31   1
    34     9    32   1
    35    11    33   1
    36    15    34   1
    37    15    35   1
    38    16    36   1
    39    16    37   1
    40    18    38   1
    41    19    39   1
    42    20    40   1
    43    21    41   1
    44    22    42   1
@<TRIPOS>SUBSTRUCTURE
     1  PGI      2

