@<TRIPOS>MOLECULE
2cet_ligand_003
    42    44
SMALL
GAST_HUCK
****
This file was generated by PARSER (from files_GN.cpp)

@<TRIPOS>ATOM
      1 O6          0.6845   12.1132   10.2391 O.3         1 PGI      -0.3919
      2 C6          0.4104   10.7133   10.2495 C.3         1 PGI       0.0768
      3 C5         -0.0511   10.1374    8.8732 C.3         1 PGI       0.1168
      4 C4         -1.1745   10.9621    8.1637 C.3         1 PGI       0.1178
      5 O4         -1.1246   10.7600    6.7484 O.3         1 PGI      -0.3858
      6 C3         -2.5909   10.6050    8.7137 C.3         1 PGI       0.1252
      7 O3         -2.7036   11.0451   10.0667 O.3         1 PGI      -0.3839
      8 C2         -2.9148    9.0818    8.6798 C.3         1 PGI       0.1578
      9 O2         -3.5133    8.7039    7.4496 O.3         1 PGI      -0.3700
     10 N1         -0.4541    8.7558    9.0381 N.pl3       1 PGI      -0.2495
     11 C8          0.3357    7.7261    9.3850 C.2         1 PGI       0.0236
     12 C7         -0.4502    6.5811    9.4695 C.2         1 PGI      -0.0178
     13 N2         -1.7155    6.9413    9.1929 N.2         1 PGI      -0.3315
     14 C1         -1.7101    8.2647    8.9351 C.2         1 PGI       0.1427
     15 C9         -0.0268    5.2454    9.9504 C.3         1 PGI      -0.0191
     16 C10         1.2986    4.6993    9.3405 C.3         1 PGI      -0.0133
     17 C14         1.1942    3.9559    8.0575 C.ar        1 PGI      -0.0416
     18 C13         0.3907    4.4217    6.9899 C.ar        1 PGI      -0.0602
     19 C12         0.3520    3.7323    5.7619 C.ar        1 PGI      -0.0686
     20 C15         1.9819    2.7957    7.8487 C.ar        1 PGI      -0.0602
     21 C16         1.9586    2.1174    6.6163 C.ar        1 PGI      -0.0686
     22 C11         1.1385    2.5824    5.5741 C.ar        1 PGI      -0.0687
     23 H1         -0.1913   12.5535   10.2683 H           1 PGI       0.2095
     24 H2         -0.3330   10.5162   11.0253 H           1 PGI       0.0589
     25 H3          1.3368   10.2157   10.5525 H           1 PGI       0.0589
     26 H4          0.8239   10.1512    8.2204 H           1 PGI       0.0699
     27 H5         -0.9998   12.0292    8.3015 H           1 PGI       0.0654
     28 H6         -1.4655    9.8554    6.5605 H           1 PGI       0.2100
     29 H7         -3.3446   11.1514    8.1383 H           1 PGI       0.0675
     30 H8         -2.2829   11.9292   10.0883 H           1 PGI       0.2103
     31 H9         -3.6425    8.8498    9.4580 H           1 PGI       0.0858
     32 H10        -3.0358    9.1931    6.7469 H           1 PGI       0.2138
     33 H11         1.3329    7.7892    9.5765 H           1 PGI       0.0663
     34 H12        -0.8340    4.5245    9.7882 H           1 PGI       0.0392
     35 H13         0.0981    5.3397   11.0361 H           1 PGI       0.0392
     36 H14         1.7491    4.0545   10.1016 H           1 PGI       0.0442
     37 H15         2.0053    5.5123    9.1823 H           1 PGI       0.0442
     38 H16        -0.1727    5.2669    7.0913 H           1 PGI       0.0557
     39 H17        -0.2502    4.0688    5.0076 H           1 PGI       0.0599
     40 H18         2.6033    2.4498    8.5826 H           1 PGI       0.0557
     41 H19         2.5386    1.2855    6.4798 H           1 PGI       0.0599
     42 H20         1.1060    2.0783    4.6875 H           1 PGI       0.0559
@<TRIPOS>BOND
     1     1     2   1
     2     2     3   1
     3     3     4   1
     4     3    10   1
     5     4     5   1
     6     4     6   1
     7     6     7   1
     8     6     8   1
     9     8     9   1
    10     8    14   1
    11    10    11   1
    12    10    14   1
    13    11    12   2
    14    12    13   1
    15    12    15   1
    16    13    14   2
    17    15    16   1
    18    16    17   1
    19    17    18  ar
    20    17    20  ar
    21    18    19  ar
    22    19    22  ar
    23    20    21  ar
    24    21    22  ar
    25     1    23   1
    26     2    24   1
    27     2    25   1
    28     3    26   1
    29     4    27   1
    30     5    28   1
    31     6    29   1
    32     7    30   1
    33     8    31   1
    34     9    32   1
    35    11    33   1
    36    15    34   1
    37    15    35   1
    38    16    36   1
    39    16    37   1
    40    18    38   1
    41    19    39   1
    42    20    40   1
    43    21    41   1
    44    22    42   1
@<TRIPOS>SUBSTRUCTURE
     1  PGI      2

