@<TRIPOS>MOLECULE
2cet_ligand_026
    42    44
SMALL
GAST_HUCK
****
This file was generated by PARSER (from files_GN.cpp)

@<TRIPOS>ATOM
      1 O6         -3.4103    8.8818   10.8344 O.3         1 PGI      -0.3919
      2 C6         -2.1285    8.7391   11.4519 C.3         1 PGI       0.0768
      3 C5         -0.9665    9.4597   10.6954 C.3         1 PGI       0.1168
      4 C4         -1.2897   10.9624   10.3584 C.3         1 PGI       0.1178
      5 O4         -0.0936   11.7497   10.4774 O.3         1 PGI      -0.3858
      6 C3         -1.8642   11.1786    8.9233 C.3         1 PGI       0.1252
      7 O3         -3.1991   10.6820    8.8439 O.3         1 PGI      -0.3839
      8 C2         -1.0013   10.4898    7.8278 C.3         1 PGI       0.1578
      9 O2          0.1328   11.2837    7.4734 O.3         1 PGI      -0.3700
     10 N1         -0.5040    8.7333    9.5375 N.pl3       1 PGI      -0.2495
     11 C8          0.0976    7.5336    9.5421 C.2         1 PGI       0.0236
     12 C7          0.5042    7.2586    8.2389 C.2         1 PGI      -0.0178
     13 N2          0.1254    8.2866    7.4735 N.2         1 PGI      -0.3315
     14 C1         -0.4962    9.1765    8.2681 C.2         1 PGI       0.1427
     15 C9          1.2052    6.0437    7.7735 C.3         1 PGI      -0.0191
     16 C10         0.2037    4.9596    7.2909 C.3         1 PGI      -0.0133
     17 C14         0.8178    3.6288    7.0204 C.ar        1 PGI      -0.0416
     18 C13         1.4531    2.9106    8.0628 C.ar        1 PGI      -0.0602
     19 C12         1.9900    1.6307    7.8260 C.ar        1 PGI      -0.0686
     20 C15         0.7094    3.0258    5.7511 C.ar        1 PGI      -0.0602
     21 C16         1.2391    1.7388    5.5175 C.ar        1 PGI      -0.0686
     22 C11         1.8833    1.0449    6.5540 C.ar        1 PGI      -0.0687
     23 H1         -3.3276    8.4402    9.9541 H           1 PGI       0.2095
     24 H2         -1.9128    7.6716   11.5494 H           1 PGI       0.0589
     25 H3         -2.2134    9.1544   12.4554 H           1 PGI       0.0589
     26 H4         -0.1325    9.4764   11.3993 H           1 PGI       0.0699
     27 H5         -1.9997   11.3605   11.0978 H           1 PGI       0.0654
     28 H6         -0.4163   12.6818   10.4698 H           1 PGI       0.2100
     29 H7         -1.9159   12.2486    8.7116 H           1 PGI       0.0675
     30 H8         -3.7669   11.4146    9.2047 H           1 PGI       0.2103
     31 H9         -1.6097   10.3543    6.9237 H           1 PGI       0.0858
     32 H10        -0.2220   12.1740    7.2414 H           1 PGI       0.2138
     33 H11         0.2687    6.9481   10.3622 H           1 PGI       0.0663
     34 H12         1.8065    5.6494    8.6000 H           1 PGI       0.0392
     35 H13         1.8855    6.3082    6.9600 H           1 PGI       0.0392
     36 H14        -0.2942    5.3448    6.3961 H           1 PGI       0.0442
     37 H15        -0.5691    4.8276    8.0597 H           1 PGI       0.0442
     38 H16         1.5252    3.3083    9.0034 H           1 PGI       0.0557
     39 H17         2.4434    1.1197    8.5894 H           1 PGI       0.0599
     40 H18         0.2384    3.5082    4.9824 H           1 PGI       0.0557
     41 H19         1.1351    1.3060    4.5955 H           1 PGI       0.0599
     42 H20         2.2649    0.1148    6.3851 H           1 PGI       0.0559
@<TRIPOS>BOND
     1     1     2   1
     2     2     3   1
     3     3     4   1
     4     3    10   1
     5     4     5   1
     6     4     6   1
     7     6     7   1
     8     6     8   1
     9     8     9   1
    10     8    14   1
    11    10    11   1
    12    10    14   1
    13    11    12   2
    14    12    13   1
    15    12    15   1
    16    13    14   2
    17    15    16   1
    18    16    17   1
    19    17    18  ar
    20    17    20  ar
    21    18    19  ar
    22    19    22  ar
    23    20    21  ar
    24    21    22  ar
    25     1    23   1
    26     2    24   1
    27     2    25   1
    28     3    26   1
    29     4    27   1
    30     5    28   1
    31     6    29   1
    32     7    30   1
    33     8    31   1
    34     9    32   1
    35    11    33   1
    36    15    34   1
    37    15    35   1
    38    16    36   1
    39    16    37   1
    40    18    38   1
    41    19    39   1
    42    20    40   1
    43    21    41   1
    44    22    42   1
@<TRIPOS>SUBSTRUCTURE
     1  PGI      2

