@<TRIPOS>MOLECULE
2cet_ligand_022
    42    44
SMALL
GAST_HUCK
****
This file was generated by PARSER (from files_GN.cpp)

@<TRIPOS>ATOM
      1 O6          0.3751    8.2664   13.5131 O.3         1 PGI      -0.3919
      2 C6         -0.7970    8.2476   12.6985 C.3         1 PGI       0.0768
      3 C5         -2.1047    8.1778   13.5404 C.3         1 PGI       0.1168
      4 C4         -2.0634    9.2370   14.6934 C.3         1 PGI       0.1178
      5 O4         -2.0975   10.5679   14.1713 O.3         1 PGI      -0.3858
      6 C3         -3.2408    9.0571   15.6842 C.3         1 PGI       0.1252
      7 O3         -3.0966   10.0216   16.7236 O.3         1 PGI      -0.3839
      8 C2         -3.2909    7.6190   16.2749 C.3         1 PGI       0.1578
      9 O2         -4.5829    7.4021   16.8469 O.3         1 PGI      -0.3700
     10 N1         -2.4533    6.8625   14.0382 N.pl3       1 PGI      -0.2495
     11 C8         -2.4713    5.6997   13.3563 C.2         1 PGI       0.0236
     12 C7         -3.0179    4.7185   14.1803 C.2         1 PGI      -0.0178
     13 N2         -3.3592    5.3096   15.3349 N.2         1 PGI      -0.3315
     14 C1         -3.0189    6.6049   15.2406 C.2         1 PGI       0.1427
     15 C9         -3.3458    3.3151   13.8326 C.3         1 PGI      -0.0191
     16 C10        -2.7607    2.2919   14.8527 C.3         1 PGI      -0.0133
     17 C14        -3.1566    0.8723   14.5974 C.ar        1 PGI      -0.0416
     18 C13        -2.1968   -0.1707   14.6297 C.ar        1 PGI      -0.0602
     19 C12        -2.5833   -1.5125   14.4570 C.ar        1 PGI      -0.0686
     20 C15        -4.5173    0.5262   14.3996 C.ar        1 PGI      -0.0602
     21 C16        -4.9034   -0.8180   14.2248 C.ar        1 PGI      -0.0686
     22 C11        -3.9341   -1.8387   14.2477 C.ar        1 PGI      -0.0687
     23 H1          0.8905    9.0309   13.1735 H           1 PGI       0.2095
     24 H2         -0.7362    7.3958   12.0116 H           1 PGI       0.0589
     25 H3         -0.8197    9.1571   12.0916 H           1 PGI       0.0589
     26 H4         -2.9266    8.4559   12.8700 H           1 PGI       0.0699
     27 H5         -1.1350    9.1277   15.2634 H           1 PGI       0.0654
     28 H6         -1.1825   10.7682   13.8847 H           1 PGI       0.2100
     29 H7         -4.1801    9.2611   15.1615 H           1 PGI       0.0675
     30 H8         -3.7837    9.8076   17.3876 H           1 PGI       0.2103
     31 H9         -2.5406    7.5069   17.0568 H           1 PGI       0.0858
     32 H10        -4.5131    7.7300   17.7652 H           1 PGI       0.2138
     33 H11        -2.1892    5.5504   12.3837 H           1 PGI       0.0663
     34 H12        -2.9657    3.0867   12.8293 H           1 PGI       0.0392
     35 H13        -4.4393    3.2311   13.8247 H           1 PGI       0.0392
     36 H14        -3.1063    2.5544   15.8594 H           1 PGI       0.0442
     37 H15        -1.6690    2.3918   14.8458 H           1 PGI       0.0442
     38 H16        -1.2076    0.0426   14.7893 H           1 PGI       0.0557
     39 H17        -1.8798   -2.2535   14.4883 H           1 PGI       0.0599
     40 H18        -5.2437    1.2528   14.3988 H           1 PGI       0.0557
     41 H19        -5.8879   -1.0526   14.0734 H           1 PGI       0.0599
     42 H20        -4.2144   -2.8139   14.1304 H           1 PGI       0.0559
@<TRIPOS>BOND
     1     1     2   1
     2     2     3   1
     3     3     4   1
     4     3    10   1
     5     4     5   1
     6     4     6   1
     7     6     7   1
     8     6     8   1
     9     8     9   1
    10     8    14   1
    11    10    11   1
    12    10    14   1
    13    11    12   2
    14    12    13   1
    15    12    15   1
    16    13    14   2
    17    15    16   1
    18    16    17   1
    19    17    18  ar
    20    17    20  ar
    21    18    19  ar
    22    19    22  ar
    23    20    21  ar
    24    21    22  ar
    25     1    23   1
    26     2    24   1
    27     2    25   1
    28     3    26   1
    29     4    27   1
    30     5    28   1
    31     6    29   1
    32     7    30   1
    33     8    31   1
    34     9    32   1
    35    11    33   1
    36    15    34   1
    37    15    35   1
    38    16    36   1
    39    16    37   1
    40    18    38   1
    41    19    39   1
    42    20    40   1
    43    21    41   1
    44    22    42   1
@<TRIPOS>SUBSTRUCTURE
     1  PGI      2

