@<TRIPOS>MOLECULE
2cet_ligand_030
    42    44
SMALL
GAST_HUCK
****
This file was generated by PARSER (from files_GN.cpp)

@<TRIPOS>ATOM
      1 O6         -1.5191   10.0700    6.5934 O.3         1 PGI      -0.3919
      2 C6         -2.6401   10.1571    7.4723 C.3         1 PGI       0.0768
      3 C5         -2.3021    9.7505    8.9337 C.3         1 PGI       0.1168
      4 C4         -1.4364   10.8141    9.6944 C.3         1 PGI       0.1178
      5 O4         -1.7507   10.7360   11.0871 O.3         1 PGI      -0.3858
      6 C3          0.1001   10.6108    9.5192 C.3         1 PGI       0.1252
      7 O3          0.5025   10.9664    8.1931 O.3         1 PGI      -0.3839
      8 C2          0.5359    9.1485    9.8248 C.3         1 PGI       0.1578
      9 O2          0.6241    8.9105   11.2295 O.3         1 PGI      -0.3700
     10 N1         -1.6992    8.4443    8.9697 N.pl3       1 PGI      -0.2495
     11 C8         -2.2902    7.2761    8.6702 C.2         1 PGI       0.0236
     12 C7         -1.3408    6.2701    8.8148 C.2         1 PGI      -0.0178
     13 N2         -0.1986    6.8430    9.2276 N.2         1 PGI      -0.3315
     14 C1         -0.4272    8.1619    9.3087 C.2         1 PGI       0.1427
     15 C9         -1.5053    4.8304    8.5505 C.3         1 PGI      -0.0191
     16 C10        -0.8508    4.4047    7.1994 C.3         1 PGI      -0.0133
     17 C14         0.0034    3.1945    7.3228 C.ar        1 PGI      -0.0416
     18 C13         1.3329    3.3143    7.7944 C.ar        1 PGI      -0.0602
     19 C12         2.1614    2.1817    7.9044 C.ar        1 PGI      -0.0686
     20 C15        -0.4808    1.9099    6.9754 C.ar        1 PGI      -0.0602
     21 C16         0.3447    0.7774    7.0955 C.ar        1 PGI      -0.0686
     22 C11         1.6651    0.9129    7.5557 C.ar        1 PGI      -0.0687
     23 H1         -1.2579    9.1202    6.6083 H           1 PGI       0.2095
     24 H2         -3.4342    9.5097    7.0910 H           1 PGI       0.0589
     25 H3         -3.0087   11.1811    7.4481 H           1 PGI       0.0589
     26 H4         -3.2597    9.6885    9.4650 H           1 PGI       0.0699
     27 H5         -1.7087   11.8220    9.3674 H           1 PGI       0.0654
     28 H6         -1.5698   11.6331   11.4294 H           1 PGI       0.2100
     29 H7          0.6294   11.2858   10.2014 H           1 PGI       0.0675
     30 H8          0.2053   11.8919    8.0621 H           1 PGI       0.2103
     31 H9          1.5175    8.9579    9.3859 H           1 PGI       0.0858
     32 H10         1.2825    9.5556   11.5589 H           1 PGI       0.2138
     33 H11        -3.2598    7.1498    8.3682 H           1 PGI       0.0663
     34 H12        -2.5719    4.5949    8.5264 H           1 PGI       0.0392
     35 H13        -1.0748    4.2823    9.3926 H           1 PGI       0.0392
     36 H14        -0.2401    5.2155    6.7872 H           1 PGI       0.0442
     37 H15        -1.6422    4.2294    6.4643 H           1 PGI       0.0442
     38 H16         1.7065    4.2297    8.0579 H           1 PGI       0.0557
     39 H17         3.1203    2.2837    8.2412 H           1 PGI       0.0599
     40 H18        -1.4419    1.7925    6.6442 H           1 PGI       0.0557
     41 H19        -0.0182   -0.1477    6.8503 H           1 PGI       0.0599
     42 H20         2.2635    0.0892    7.6415 H           1 PGI       0.0559
@<TRIPOS>BOND
     1     1     2   1
     2     2     3   1
     3     3     4   1
     4     3    10   1
     5     4     5   1
     6     4     6   1
     7     6     7   1
     8     6     8   1
     9     8     9   1
    10     8    14   1
    11    10    11   1
    12    10    14   1
    13    11    12   2
    14    12    13   1
    15    12    15   1
    16    13    14   2
    17    15    16   1
    18    16    17   1
    19    17    18  ar
    20    17    20  ar
    21    18    19  ar
    22    19    22  ar
    23    20    21  ar
    24    21    22  ar
    25     1    23   1
    26     2    24   1
    27     2    25   1
    28     3    26   1
    29     4    27   1
    30     5    28   1
    31     6    29   1
    32     7    30   1
    33     8    31   1
    34     9    32   1
    35    11    33   1
    36    15    34   1
    37    15    35   1
    38    16    36   1
    39    16    37   1
    40    18    38   1
    41    19    39   1
    42    20    40   1
    43    21    41   1
    44    22    42   1
@<TRIPOS>SUBSTRUCTURE
     1  PGI      2

