@<TRIPOS>MOLECULE
2cet_ligand_005
    42    44
SMALL
GAST_HUCK
****
This file was generated by PARSER (from files_GN.cpp)

@<TRIPOS>ATOM
      1 O6         -4.9061    7.6611   17.1293 O.3         1 PGI      -0.3919
      2 C6         -3.6811    7.7834   16.4184 C.3         1 PGI       0.0768
      3 C5         -3.2372    6.4328   15.7685 C.3         1 PGI       0.1168
      4 C4         -2.5841    5.4337   16.7882 C.3         1 PGI       0.1178
      5 O4         -2.7514    4.0926   16.3192 O.3         1 PGI      -0.3858
      6 C3         -1.0537    5.6859   16.9861 C.3         1 PGI       0.1252
      7 O3         -0.8308    6.8836   17.7224 O.3         1 PGI      -0.3839
      8 C2         -0.2598    5.7596   15.6507 C.3         1 PGI       0.1578
      9 O2          0.0763    4.4483   15.2039 O.3         1 PGI      -0.3700
     10 N1         -2.3597    6.6854   14.6491 N.pl3       1 PGI      -0.2495
     11 C8         -2.7159    7.2393   13.4826 C.2         1 PGI       0.0236
     12 C7         -1.5716    7.3992   12.7123 C.2         1 PGI      -0.0178
     13 N2         -0.5410    6.8824   13.4064 N.2         1 PGI      -0.3315
     14 C1         -1.0292    6.4464   14.5874 C.2         1 PGI       0.1427
     15 C9         -1.4754    7.9996   11.3642 C.3         1 PGI      -0.0191
     16 C10        -2.3927    9.2432   11.1551 C.3         1 PGI      -0.0133
     17 C14        -2.3532    9.7440    9.7530 C.ar        1 PGI      -0.0416
     18 C13        -1.2358   10.4790    9.2940 C.ar        1 PGI      -0.0602
     19 C12        -1.1814   10.9453    7.9683 C.ar        1 PGI      -0.0686
     20 C15        -3.4204    9.4990    8.8594 C.ar        1 PGI      -0.0602
     21 C16        -3.3664    9.9638    7.5341 C.ar        1 PGI      -0.0686
     22 C11        -2.2439   10.6830    7.0872 C.ar        1 PGI      -0.0687
     23 H1         -4.7358    7.0084   17.8368 H           1 PGI       0.2095
     24 H2         -2.9115    8.1688   17.0842 H           1 PGI       0.0589
     25 H3         -3.8453    8.5399   15.6523 H           1 PGI       0.0589
     26 H4         -4.1415    5.9526   15.3727 H           1 PGI       0.0699
     27 H5         -3.0857    5.5035   17.7563 H           1 PGI       0.0654
     28 H6         -3.5952    3.7755   16.7200 H           1 PGI       0.2100
     29 H7         -0.6416    4.8805   17.6032 H           1 PGI       0.0675
     30 H8         -1.5289    6.9033   18.4222 H           1 PGI       0.2103
     31 H9          0.6736    6.3030   15.8117 H           1 PGI       0.0858
     32 H10         0.7423    4.5716   14.4866 H           1 PGI       0.2138
     33 H11        -3.6598    7.5223   13.2297 H           1 PGI       0.0663
     34 H12        -1.7549    7.2250   10.6422 H           1 PGI       0.0392
     35 H13        -0.4358    8.2797   11.1762 H           1 PGI       0.0392
     36 H14        -2.0898   10.0407   11.8324 H           1 PGI       0.0442
     37 H15        -3.4208    8.9773   11.4071 H           1 PGI       0.0442
     38 H16        -0.4538   10.6799    9.9226 H           1 PGI       0.0557
     39 H17        -0.3692   11.4764    7.6436 H           1 PGI       0.0599
     40 H18        -4.2446    8.9677    9.1636 H           1 PGI       0.0557
     41 H19        -4.1418    9.7823    6.8935 H           1 PGI       0.0599
     42 H20        -2.1995   11.0207    6.1239 H           1 PGI       0.0559
@<TRIPOS>BOND
     1     1     2   1
     2     2     3   1
     3     3     4   1
     4     3    10   1
     5     4     5   1
     6     4     6   1
     7     6     7   1
     8     6     8   1
     9     8     9   1
    10     8    14   1
    11    10    11   1
    12    10    14   1
    13    11    12   2
    14    12    13   1
    15    12    15   1
    16    13    14   2
    17    15    16   1
    18    16    17   1
    19    17    18  ar
    20    17    20  ar
    21    18    19  ar
    22    19    22  ar
    23    20    21  ar
    24    21    22  ar
    25     1    23   1
    26     2    24   1
    27     2    25   1
    28     3    26   1
    29     4    27   1
    30     5    28   1
    31     6    29   1
    32     7    30   1
    33     8    31   1
    34     9    32   1
    35    11    33   1
    36    15    34   1
    37    15    35   1
    38    16    36   1
    39    16    37   1
    40    18    38   1
    41    19    39   1
    42    20    40   1
    43    21    41   1
    44    22    42   1
@<TRIPOS>SUBSTRUCTURE
     1  PGI      2

