@<TRIPOS>MOLECULE
2cet_ligand_029
    42    44
SMALL
GAST_HUCK
****
This file was generated by PARSER (from files_GN.cpp)

@<TRIPOS>ATOM
      1 O6         -0.5672    7.1859   18.2148 O.3         1 PGI      -0.3919
      2 C6         -1.1044    6.4308   17.1365 C.3         1 PGI       0.0768
      3 C5         -2.2257    7.2291   16.3874 C.3         1 PGI       0.1168
      4 C4         -3.6564    6.6113   16.5984 C.3         1 PGI       0.1178
      5 O4         -4.6735    7.6140   16.4828 O.3         1 PGI      -0.3858
      6 C3         -3.9616    5.4694   15.5820 C.3         1 PGI       0.1252
      7 O3         -3.1392    4.3321   15.8430 O.3         1 PGI      -0.3839
      8 C2         -3.7388    5.9175   14.1091 C.3         1 PGI       0.1578
      9 O2         -4.8194    6.7368   13.6694 O.3         1 PGI      -0.3700
     10 N1         -1.8953    7.3599   14.9837 N.pl3       1 PGI      -0.2495
     11 C8         -0.9286    8.1108   14.4208 C.2         1 PGI       0.0236
     12 C7         -0.9638    7.9026   13.0406 C.2         1 PGI      -0.0178
     13 N2         -1.9442    7.0237   12.7976 N.2         1 PGI      -0.3315
     14 C1         -2.5077    6.7093   13.9747 C.2         1 PGI       0.1427
     15 C9         -0.1067    8.5460   12.0165 C.3         1 PGI      -0.0191
     16 C10        -0.2430    8.0213   10.5518 C.3         1 PGI      -0.0133
     17 C14        -1.2181    8.7173    9.6523 C.ar        1 PGI      -0.0416
     18 C13        -0.7771    9.2828    8.4273 C.ar        1 PGI      -0.0602
     19 C12        -1.6939    9.8430    7.5161 C.ar        1 PGI      -0.0686
     20 C15        -2.6103    8.7382    9.9277 C.ar        1 PGI      -0.0602
     21 C16        -3.5247    9.3103    9.0255 C.ar        1 PGI      -0.0686
     22 C11        -3.0678    9.8608    7.8162 C.ar        1 PGI      -0.0687
     23 H1         -1.2158    7.1001   18.9460 H           1 PGI       0.2095
     24 H2         -1.4691    5.4879   17.5466 H           1 PGI       0.0589
     25 H3         -0.2752    6.1830   16.4708 H           1 PGI       0.0589
     26 H4         -2.2622    8.2424   16.8001 H           1 PGI       0.0699
     27 H5         -3.7529    6.2171   17.6157 H           1 PGI       0.0654
     28 H6         -4.4241    8.1600   15.7101 H           1 PGI       0.2100
     29 H7         -5.0010    5.1535   15.6983 H           1 PGI       0.0675
     30 H8         -3.5667    3.8479   16.5820 H           1 PGI       0.2103
     31 H9         -3.6951    5.0431   13.4541 H           1 PGI       0.0858
     32 H10        -4.4244    7.3757   13.0388 H           1 PGI       0.2138
     33 H11        -0.2872    8.7343   14.9177 H           1 PGI       0.0663
     34 H12         0.9291    8.3903   12.3356 H           1 PGI       0.0392
     35 H13        -0.2919    9.6231   12.0364 H           1 PGI       0.0392
     36 H14        -0.4907    6.9592   10.5691 H           1 PGI       0.0442
     37 H15         0.7580    8.0823   10.1134 H           1 PGI       0.0442
     38 H16         0.2176    9.2715    8.1733 H           1 PGI       0.0557
     39 H17        -1.3616   10.2279    6.6305 H           1 PGI       0.0599
     40 H18        -2.9852    8.3210   10.7794 H           1 PGI       0.0557
     41 H19        -4.5220    9.3097    9.2492 H           1 PGI       0.0599
     42 H20        -3.7354   10.2648    7.1566 H           1 PGI       0.0559
@<TRIPOS>BOND
     1     1     2   1
     2     2     3   1
     3     3     4   1
     4     3    10   1
     5     4     5   1
     6     4     6   1
     7     6     7   1
     8     6     8   1
     9     8     9   1
    10     8    14   1
    11    10    11   1
    12    10    14   1
    13    11    12   2
    14    12    13   1
    15    12    15   1
    16    13    14   2
    17    15    16   1
    18    16    17   1
    19    17    18  ar
    20    17    20  ar
    21    18    19  ar
    22    19    22  ar
    23    20    21  ar
    24    21    22  ar
    25     1    23   1
    26     2    24   1
    27     2    25   1
    28     3    26   1
    29     4    27   1
    30     5    28   1
    31     6    29   1
    32     7    30   1
    33     8    31   1
    34     9    32   1
    35    11    33   1
    36    15    34   1
    37    15    35   1
    38    16    36   1
    39    16    37   1
    40    18    38   1
    41    19    39   1
    42    20    40   1
    43    21    41   1
    44    22    42   1
@<TRIPOS>SUBSTRUCTURE
     1  PGI      2

