@<TRIPOS>MOLECULE
2cet_ligand_037
    42    44
SMALL
GAST_HUCK
****
This file was generated by PARSER (from files_GN.cpp)

@<TRIPOS>ATOM
      1 O6         -0.5160    6.5256   18.3098 O.3         1 PGI      -0.3919
      2 C6         -1.6280    5.9537   17.6279 C.3         1 PGI       0.0768
      3 C5         -2.3204    7.0048   16.7041 C.3         1 PGI       0.1168
      4 C4         -3.8752    6.7944   16.6093 C.3         1 PGI       0.1178
      5 O4         -4.5329    8.0448   16.3954 O.3         1 PGI      -0.3858
      6 C3         -4.2766    5.8121   15.4714 C.3         1 PGI       0.1252
      7 O3         -3.8405    4.4883   15.7863 O.3         1 PGI      -0.3839
      8 C2         -3.6857    6.2254   14.0970 C.3         1 PGI       0.1578
      9 O2         -4.4432    7.2969   13.5395 O.3         1 PGI      -0.3700
     10 N1         -1.6982    7.0265   15.3917 N.pl3       1 PGI      -0.2495
     11 C8         -0.4342    7.3576   15.0716 C.2         1 PGI       0.0236
     12 C7         -0.2777    7.2329   13.6913 C.2         1 PGI      -0.0178
     13 N2         -1.4455    6.8066   13.1981 N.2         1 PGI      -0.3315
     14 C1         -2.2883    6.6621   14.2317 C.2         1 PGI       0.1427
     15 C9          0.9654    7.4571   12.9270 C.3         1 PGI      -0.0191
     16 C10         0.8552    7.5870   11.3800 C.3         1 PGI      -0.0133
     17 C14         0.1762    6.4760   10.6477 C.ar        1 PGI      -0.0416
     18 C13         0.5755    5.1296   10.8303 C.ar        1 PGI      -0.0602
     19 C12        -0.0602    4.0853   10.1393 C.ar        1 PGI      -0.0686
     20 C15        -0.8657    6.7428    9.7265 C.ar        1 PGI      -0.0602
     21 C16        -1.4839    5.7026    9.0067 C.ar        1 PGI      -0.0686
     22 C11        -1.0813    4.3728    9.2183 C.ar        1 PGI      -0.0687
     23 H1         -0.8974    7.1633   18.9579 H           1 PGI       0.2095
     24 H2         -2.3019    5.5669   18.3948 H           1 PGI       0.0589
     25 H3         -1.2713    5.1010   17.0537 H           1 PGI       0.0589
     26 H4         -2.1649    7.9892   17.1610 H           1 PGI       0.0699
     27 H5         -4.2790    6.4205   17.5520 H           1 PGI       0.0654
     28 H6         -4.1088    8.4364   15.6023 H           1 PGI       0.2100
     29 H7         -5.3655    5.7796   15.3884 H           1 PGI       0.0675
     30 H8         -4.2941    4.2341   16.6173 H           1 PGI       0.2103
     31 H9         -3.7427    5.3801   13.4033 H           1 PGI       0.0858
     32 H10        -4.0336    7.4900   12.6688 H           1 PGI       0.2138
     33 H11         0.2869    7.6702   15.7237 H           1 PGI       0.0663
     34 H12         1.6538    6.6517   13.1811 H           1 PGI       0.0392
     35 H13         1.4139    8.3769   13.3014 H           1 PGI       0.0392
     36 H14         1.8721    7.6575   10.9849 H           1 PGI       0.0442
     37 H15         0.3623    8.5426   11.1696 H           1 PGI       0.0442
     38 H16         1.3300    4.9008   11.4795 H           1 PGI       0.0557
     39 H17         0.2256    3.1163   10.2949 H           1 PGI       0.0599
     40 H18        -1.1708    7.6965    9.5537 H           1 PGI       0.0557
     41 H19        -2.2289    5.9135    8.3370 H           1 PGI       0.0599
     42 H20        -1.5368    3.6176    8.7073 H           1 PGI       0.0559
@<TRIPOS>BOND
     1     1     2   1
     2     2     3   1
     3     3     4   1
     4     3    10   1
     5     4     5   1
     6     4     6   1
     7     6     7   1
     8     6     8   1
     9     8     9   1
    10     8    14   1
    11    10    11   1
    12    10    14   1
    13    11    12   2
    14    12    13   1
    15    12    15   1
    16    13    14   2
    17    15    16   1
    18    16    17   1
    19    17    18  ar
    20    17    20  ar
    21    18    19  ar
    22    19    22  ar
    23    20    21  ar
    24    21    22  ar
    25     1    23   1
    26     2    24   1
    27     2    25   1
    28     3    26   1
    29     4    27   1
    30     5    28   1
    31     6    29   1
    32     7    30   1
    33     8    31   1
    34     9    32   1
    35    11    33   1
    36    15    34   1
    37    15    35   1
    38    16    36   1
    39    16    37   1
    40    18    38   1
    41    19    39   1
    42    20    40   1
    43    21    41   1
    44    22    42   1
@<TRIPOS>SUBSTRUCTURE
     1  PGI      2

