@<TRIPOS>MOLECULE
2cet_ligand_036
    42    44
SMALL
GAST_HUCK
****
This file was generated by PARSER (from files_GN.cpp)

@<TRIPOS>ATOM
      1 O6         -4.9304    7.3901   17.2409 O.3         1 PGI      -0.3919
      2 C6         -4.0226    6.3022   17.0596 C.3         1 PGI       0.0768
      3 C5         -3.9174    5.9119   15.5478 C.3         1 PGI       0.1168
      4 C4         -3.8921    4.3659   15.2886 C.3         1 PGI       0.1178
      5 O4         -4.4303    4.1023   13.9899 O.3         1 PGI      -0.3858
      6 C3         -2.4601    3.7587   15.3918 C.3         1 PGI       0.1252
      7 O3         -2.0152    3.7707   16.7495 O.3         1 PGI      -0.3839
      8 C2         -1.4265    4.4994   14.4926 C.3         1 PGI       0.1578
      9 O2         -1.4610    3.9967   13.1577 O.3         1 PGI      -0.3700
     10 N1         -2.7830    6.5619   14.9368 N.pl3       1 PGI      -0.2495
     11 C8         -2.6192    7.8828   14.7380 C.2         1 PGI       0.0236
     12 C7         -1.3836    8.0679   14.1272 C.2         1 PGI      -0.0178
     13 N2         -0.8203    6.8609   13.9664 N.2         1 PGI      -0.3315
     14 C1         -1.6711    5.9534   14.4719 C.2         1 PGI       0.1427
     15 C9         -0.7731    9.3350   13.6789 C.3         1 PGI      -0.0191
     16 C10        -0.9374    9.5968   12.1572 C.3         1 PGI      -0.0133
     17 C14        -0.4847    8.4665   11.2979 C.ar        1 PGI      -0.0416
     18 C13        -1.4204    7.6513   10.6261 C.ar        1 PGI      -0.0602
     19 C12        -0.9994    6.5353    9.8766 C.ar        1 PGI      -0.0686
     20 C15         0.8926    8.1390   11.2066 C.ar        1 PGI      -0.0602
     21 C16         1.3137    7.0306   10.4475 C.ar        1 PGI      -0.0686
     22 C11         0.3681    6.2271    9.7886 C.ar        1 PGI      -0.0687
     23 H1         -4.8175    7.6657   18.1727 H           1 PGI       0.2095
     24 H2         -4.3830    5.4749   17.6746 H           1 PGI       0.0589
     25 H3         -3.0471    6.6014   17.4552 H           1 PGI       0.0589
     26 H4         -4.8134    6.2908   15.0451 H           1 PGI       0.0699
     27 H5         -4.5475    3.8535   15.9947 H           1 PGI       0.0654
     28 H6         -4.4897    3.1250   13.9218 H           1 PGI       0.2100
     29 H7         -2.5007    2.7063   15.0928 H           1 PGI       0.0675
     30 H8         -1.9184    4.7160   16.9877 H           1 PGI       0.2103
     31 H9         -0.4197    4.3236   14.8787 H           1 PGI       0.0858
     32 H10        -2.3709    4.1669   12.8357 H           1 PGI       0.2138
     33 H11        -3.2851    8.6213   14.9798 H           1 PGI       0.0663
     34 H12         0.2863    9.3106   13.9435 H           1 PGI       0.0392
     35 H13        -1.2289   10.1643   14.2234 H           1 PGI       0.0392
     36 H14        -0.3771   10.4949   11.8880 H           1 PGI       0.0442
     37 H15        -1.9904    9.8205   11.9660 H           1 PGI       0.0442
     38 H16        -2.4231    7.8517   10.6909 H           1 PGI       0.0557
     39 H17        -1.6888    5.9527    9.3988 H           1 PGI       0.0599
     40 H18         1.5922    8.7036   11.6922 H           1 PGI       0.0557
     41 H19         2.3105    6.8122   10.3788 H           1 PGI       0.0599
     42 H20         0.6753    5.4194    9.2456 H           1 PGI       0.0559
@<TRIPOS>BOND
     1     1     2   1
     2     2     3   1
     3     3     4   1
     4     3    10   1
     5     4     5   1
     6     4     6   1
     7     6     7   1
     8     6     8   1
     9     8     9   1
    10     8    14   1
    11    10    11   1
    12    10    14   1
    13    11    12   2
    14    12    13   1
    15    12    15   1
    16    13    14   2
    17    15    16   1
    18    16    17   1
    19    17    18  ar
    20    17    20  ar
    21    18    19  ar
    22    19    22  ar
    23    20    21  ar
    24    21    22  ar
    25     1    23   1
    26     2    24   1
    27     2    25   1
    28     3    26   1
    29     4    27   1
    30     5    28   1
    31     6    29   1
    32     7    30   1
    33     8    31   1
    34     9    32   1
    35    11    33   1
    36    15    34   1
    37    15    35   1
    38    16    36   1
    39    16    37   1
    40    18    38   1
    41    19    39   1
    42    20    40   1
    43    21    41   1
    44    22    42   1
@<TRIPOS>SUBSTRUCTURE
     1  PGI      2

