@<TRIPOS>MOLECULE
2cet_ligand_011
    42    44
SMALL
GAST_HUCK
****
This file was generated by PARSER (from files_GN.cpp)

@<TRIPOS>ATOM
      1 O6         -0.7483   10.2285   12.3947 O.3         1 PGI      -0.3919
      2 C6         -0.6610   11.2783   11.4337 C.3         1 PGI       0.0768
      3 C5          0.1903   10.9520   10.1619 C.3         1 PGI       0.1168
      4 C4         -0.2664   11.7860    8.9110 C.3         1 PGI       0.1178
      5 O4          0.8200   11.8917    7.9807 O.3         1 PGI      -0.3858
      6 C3         -1.4762   11.1329    8.1727 C.3         1 PGI       0.1252
      7 O3         -2.6752   11.2293    8.9358 O.3         1 PGI      -0.3839
      8 C2         -1.2226    9.6347    7.8246 C.3         1 PGI       0.1578
      9 O2         -0.4858    9.5546    6.6057 O.3         1 PGI      -0.3700
     10 N1          0.1923    9.5412    9.8762 N.pl3       1 PGI      -0.2495
     11 C8          0.8234    8.5857   10.5771 C.2         1 PGI       0.0236
     12 C7          0.4864    7.3498   10.0374 C.2         1 PGI      -0.0178
     13 N2         -0.3048    7.5908    8.9795 N.2         1 PGI      -0.3315
     14 C1         -0.4741    8.9235    8.8848 C.2         1 PGI       0.1427
     15 C9          0.8692    5.9894   10.4942 C.3         1 PGI      -0.0191
     16 C10         2.1690    5.9058   11.3478 C.3         1 PGI      -0.0133
     17 C14         2.4224    4.5786   11.9802 C.ar        1 PGI      -0.0416
     18 C13         2.3240    4.4096   13.3852 C.ar        1 PGI      -0.0602
     19 C12         2.6041    3.1696   13.9818 C.ar        1 PGI      -0.0686
     20 C15         2.8253    3.4686   11.2001 C.ar        1 PGI      -0.0602
     21 C16         3.0987    2.2245   11.7981 C.ar        1 PGI      -0.0686
     22 C11         2.9898    2.0713   13.1903 C.ar        1 PGI      -0.0687
     23 H1          0.1716   10.0331   12.6362 H           1 PGI       0.2095
     24 H2         -0.2524   12.1641   11.9153 H           1 PGI       0.0589
     25 H3         -1.6861   11.5043   11.1691 H           1 PGI       0.0589
     26 H4          1.2280   11.2449   10.3827 H           1 PGI       0.0699
     27 H5         -0.5307   12.8040    9.2061 H           1 PGI       0.0654
     28 H6          1.2194   12.7838    8.1273 H           1 PGI       0.2100
     29 H7         -1.6750   11.6890    7.2517 H           1 PGI       0.0675
     30 H8         -2.5919   12.0654    9.4508 H           1 PGI       0.2103
     31 H9         -2.1858    9.1323    7.6648 H           1 PGI       0.0858
     32 H10        -0.6001    8.6225    6.3229 H           1 PGI       0.2138
     33 H11         1.4185    8.7400   11.3962 H           1 PGI       0.0663
     34 H12         0.9933    5.3784    9.5989 H           1 PGI       0.0392
     35 H13         0.0348    5.5761   11.0659 H           1 PGI       0.0392
     36 H14         2.1230    6.6794   12.1182 H           1 PGI       0.0442
     37 H15         3.0235    6.1375   10.6979 H           1 PGI       0.0442
     38 H16         2.0650    5.1950   13.9844 H           1 PGI       0.0557
     39 H17         2.5351    3.0620   14.9992 H           1 PGI       0.0599
     40 H18         2.9304    3.5573   10.1864 H           1 PGI       0.0557
     41 H19         3.3862    1.4328   11.2206 H           1 PGI       0.0599
     42 H20         3.1999    1.1752   13.6267 H           1 PGI       0.0559
@<TRIPOS>BOND
     1     1     2   1
     2     2     3   1
     3     3     4   1
     4     3    10   1
     5     4     5   1
     6     4     6   1
     7     6     7   1
     8     6     8   1
     9     8     9   1
    10     8    14   1
    11    10    11   1
    12    10    14   1
    13    11    12   2
    14    12    13   1
    15    12    15   1
    16    13    14   2
    17    15    16   1
    18    16    17   1
    19    17    18  ar
    20    17    20  ar
    21    18    19  ar
    22    19    22  ar
    23    20    21  ar
    24    21    22  ar
    25     1    23   1
    26     2    24   1
    27     2    25   1
    28     3    26   1
    29     4    27   1
    30     5    28   1
    31     6    29   1
    32     7    30   1
    33     8    31   1
    34     9    32   1
    35    11    33   1
    36    15    34   1
    37    15    35   1
    38    16    36   1
    39    16    37   1
    40    18    38   1
    41    19    39   1
    42    20    40   1
    43    21    41   1
    44    22    42   1
@<TRIPOS>SUBSTRUCTURE
     1  PGI      2

