@<TRIPOS>MOLECULE
2cet_ligand_038
    42    44
SMALL
GAST_HUCK
****
This file was generated by PARSER (from files_GN.cpp)

@<TRIPOS>ATOM
      1 O6         -4.7098    7.5191   16.5964 O.3         1 PGI      -0.3919
      2 C6         -3.4636    7.2049   15.9669 C.3         1 PGI       0.0768
      3 C5         -2.9723    5.7596   16.2856 C.3         1 PGI       0.1168
      4 C4         -2.4746    5.5886   17.7664 C.3         1 PGI       0.1178
      5 O4         -2.6819    4.2446   18.1943 O.3         1 PGI      -0.3858
      6 C3         -0.9588    5.8963   17.9467 C.3         1 PGI       0.1252
      7 O3         -0.6895    7.2809   17.7578 O.3         1 PGI      -0.3839
      8 C2         -0.0735    5.0787   16.9644 C.3         1 PGI       0.1578
      9 O2          0.0907    3.7399   17.4268 O.3         1 PGI      -0.3700
     10 N1         -1.9694    5.3212   15.3390 N.pl3       1 PGI      -0.2495
     11 C8         -2.1523    5.0497   14.0319 C.2         1 PGI       0.0236
     12 C7         -0.9463    4.5825   13.5222 C.2         1 PGI      -0.0178
     13 N2         -0.0546    4.5673   14.5236 N.2         1 PGI      -0.3315
     14 C1         -0.6800    5.0245   15.6203 C.2         1 PGI       0.1427
     15 C9         -0.6855    4.0494   12.1690 C.3         1 PGI      -0.0191
     16 C10        -1.2721    2.6268   11.9510 C.3         1 PGI      -0.0133
     17 C14        -1.2538    1.7741   13.1764 C.ar        1 PGI      -0.0416
     18 C13        -2.4592    1.3524   13.7877 C.ar        1 PGI      -0.0602
     19 C12        -2.4406    0.6116   14.9867 C.ar        1 PGI      -0.0686
     20 C15        -0.0250    1.4261   13.7935 C.ar        1 PGI      -0.0602
     21 C16        -0.0057    0.6908   14.9959 C.ar        1 PGI      -0.0686
     22 C11        -1.2118    0.2883   15.5957 C.ar        1 PGI      -0.0687
     23 H1         -4.4865    7.8257   17.4987 H           1 PGI       0.2095
     24 H2         -2.7187    7.9435   16.2639 H           1 PGI       0.0589
     25 H3         -3.6236    7.3097   14.8935 H           1 PGI       0.0589
     26 H4         -3.8451    5.1082   16.1567 H           1 PGI       0.0699
     27 H5         -3.0513    6.2218   18.4403 H           1 PGI       0.0654
     28 H6         -3.5626    3.9906   17.8533 H           1 PGI       0.2100
     29 H7         -0.6664    5.6660   18.9763 H           1 PGI       0.0675
     30 H8         -1.5001    7.7458   18.0468 H           1 PGI       0.2103
     31 H9          0.9180    5.5315   16.8910 H           1 PGI       0.0858
     32 H10         0.6745    3.8011   18.2138 H           1 PGI       0.2138
     33 H11        -3.0314    5.1205   13.5124 H           1 PGI       0.0663
     34 H12         0.3928    4.0161   11.9974 H           1 PGI       0.0392
     35 H13        -1.1088    4.7351   11.4292 H           1 PGI       0.0392
     36 H14        -0.7049    2.1201   11.1631 H           1 PGI       0.0442
     37 H15        -2.2926    2.7379   11.5771 H           1 PGI       0.0442
     38 H16        -3.3641    1.5975   13.3767 H           1 PGI       0.0557
     39 H17        -3.3184    0.3154   15.4230 H           1 PGI       0.0599
     40 H18         0.8631    1.7147   13.3766 H           1 PGI       0.0557
     41 H19         0.8888    0.4523   15.4377 H           1 PGI       0.0599
     42 H20        -1.1990   -0.2423   16.4713 H           1 PGI       0.0559
@<TRIPOS>BOND
     1     1     2   1
     2     2     3   1
     3     3     4   1
     4     3    10   1
     5     4     5   1
     6     4     6   1
     7     6     7   1
     8     6     8   1
     9     8     9   1
    10     8    14   1
    11    10    11   1
    12    10    14   1
    13    11    12   2
    14    12    13   1
    15    12    15   1
    16    13    14   2
    17    15    16   1
    18    16    17   1
    19    17    18  ar
    20    17    20  ar
    21    18    19  ar
    22    19    22  ar
    23    20    21  ar
    24    21    22  ar
    25     1    23   1
    26     2    24   1
    27     2    25   1
    28     3    26   1
    29     4    27   1
    30     5    28   1
    31     6    29   1
    32     7    30   1
    33     8    31   1
    34     9    32   1
    35    11    33   1
    36    15    34   1
    37    15    35   1
    38    16    36   1
    39    16    37   1
    40    18    38   1
    41    19    39   1
    42    20    40   1
    43    21    41   1
    44    22    42   1
@<TRIPOS>SUBSTRUCTURE
     1  PGI      2

