@<TRIPOS>MOLECULE
2d1o_ligand_057
    77    77
SMALL
GAST_HUCK
****
This file was generated by PARSER (from files_GN.cpp)

@<TRIPOS>ATOM
      1 C1         30.1947    5.5059   24.7097 C.ar        1 FA4      -0.0755
      2 C2         29.1335    5.7770   23.8284 C.ar        1 FA4      -0.0668
      3 C3         28.3160    6.9234   23.9901 C.ar        1 FA4      -0.0377
      4 C4         28.5820    7.8049   25.0883 C.ar        1 FA4      -0.0050
      5 C5         29.6510    7.5071   25.9738 C.ar        1 FA4      -0.0635
      6 C6         30.4577    6.3756   25.7776 C.ar        1 FA4      -0.0754
      7 C7         27.2915    7.1931   22.9239 C.3         1 FA4      -0.0215
      8 C8         27.9812    7.6429   21.5954 C.3         1 FA4      -0.0443
      9 C9         27.3091    8.8677   20.8920 C.3         1 FA4      -0.0514
     10 C10        28.2710    9.6487   19.9464 C.3         1 FA4      -0.0529
     11 C11        28.7017    8.8794   18.6631 C.3         1 FA4      -0.0530
     12 C12        30.0351    9.4159   18.0657 C.3         1 FA4      -0.0529
     13 C13        30.6350    8.5259   16.9478 C.3         1 FA4      -0.0510
     14 C14        31.3098    7.2079   17.4464 C.3         1 FA4      -0.0361
     15 C15        32.0412    6.4095   16.3327 C.3         1 FA4       0.0374
     16 C16        33.1748    7.1310   15.7778 C.2         1 FA4       0.1782
     17 N17        32.9880    7.8834   14.6972 N.am        1 FA4      -0.2657
     18 C18        33.9166    8.7878   14.0800 C.3         1 FA4       0.1325
     19 O19        34.2351    7.1131   16.3919 O.2         1 FA4      -0.3969
     20 C20        33.2426   10.1988   14.0394 C.3         1 FA4      -0.0123
     21 C21        34.2379    8.2255   12.7784 C.2         1 FA4       0.2244
     22 N22        35.2497    7.3950   12.6271 N.am        1 FA4      -0.1623
     23 C23        33.9871   11.2910   13.2154 C.3         1 FA4      -0.0440
     24 C24        33.2100   12.6416   13.1849 C.3         1 FA4      -0.0124
     25 C25        33.6437   13.5691   12.0131 C.3         1 FA4      -0.0354
     26 N26        32.5018   14.3422   11.5139 N.4         1 FA4       0.2185
     27 C27        27.7848    9.0508   25.3331 C.3         1 FA4       0.0939
     28 N28        28.0119   10.0434   24.3776 N.pl3       1 FA4      -0.2620
     29 C29        29.0960   10.7162   24.1840 C.cat       1 FA4       0.2900
     30 N30        29.1007   11.5684   23.2326 N.pl3       1 FA4      -0.2847
     31 N31        30.1665   10.5791   24.8806 N.pl3       1 FA4      -0.2847
     32 O32        35.5168    6.8025   11.4901 O.3         1 FA4      -0.2717
     33 O33        33.4518    8.3624   11.8557 O.2         1 FA4      -0.3944
     34 H1         30.7823    4.6779   24.5706 H           1 FA4       0.0541
     35 H2         28.9772    5.1315   23.0489 H           1 FA4       0.0537
     36 H3         29.8589    8.1225   26.7620 H           1 FA4       0.0538
     37 H4         31.2320    6.1846   26.4163 H           1 FA4       0.0541
     38 H5         26.5826    7.9530   23.2604 H           1 FA4       0.0411
     39 H6         26.6978    6.2874   22.7465 H           1 FA4       0.0411
     40 H7         27.9732    6.7832   20.9148 H           1 FA4       0.0286
     41 H8         29.0348    7.8912   21.7945 H           1 FA4       0.0286
     42 H9         26.9720    9.5769   21.6613 H           1 FA4       0.0267
     43 H10        26.4256    8.5298   20.3341 H           1 FA4       0.0267
     44 H11        29.1504    9.9251   20.5335 H           1 FA4       0.0265
     45 H12        27.7828   10.5809   19.6434 H           1 FA4       0.0265
     46 H13        27.9112    8.9654   17.9088 H           1 FA4       0.0265
     47 H14        28.8263    7.8185   18.8880 H           1 FA4       0.0265
     48 H15        30.7763    9.5242   18.8652 H           1 FA4       0.0265
     49 H16        29.8435   10.4155   17.6547 H           1 FA4       0.0265
     50 H17        31.3837    9.1269   16.4271 H           1 FA4       0.0267
     51 H18        29.8466    8.2897   16.2292 H           1 FA4       0.0267
     52 H19        30.5406    6.5570   17.8666 H           1 FA4       0.0290
     53 H20        32.0116    7.4550   18.2528 H           1 FA4       0.0290
     54 H21        31.3227    6.1481   15.5489 H           1 FA4       0.0502
     55 H22        32.3888    5.4646   16.7646 H           1 FA4       0.0502
     56 H23        32.0983    7.8539   14.3066 H           1 FA4       0.1882
     57 H24        34.8378    8.8740   14.6644 H           1 FA4       0.0799
     58 H25        33.1431   10.5593   15.0724 H           1 FA4       0.0312
     59 H26        32.2315   10.0773   13.6335 H           1 FA4       0.0312
     60 H27        35.7755    7.1662   13.4090 H           1 FA4       0.2217
     61 H28        34.1074   10.9268   12.1894 H           1 FA4       0.0269
     62 H29        34.9843   11.4509   13.6412 H           1 FA4       0.0269
     63 H30        33.3652   13.1590   14.1416 H           1 FA4       0.0317
     64 H31        32.1352   12.4345   13.1019 H           1 FA4       0.0317
     65 H32        34.0290   12.9799   11.1772 H           1 FA4       0.0813
     66 H33        34.4299   14.2472   12.3575 H           1 FA4       0.0813
     67 H34        32.8197   14.9329   10.7368 H           1 FA4       0.1994
     68 H35        32.1243   14.9327   12.2630 H           1 FA4       0.1994
     69 H36        31.7866   13.6816   11.1814 H           1 FA4       0.1994
     70 H37        27.9629    9.4682   26.3282 H           1 FA4       0.0839
     71 H38        26.7218    8.7870   25.3038 H           1 FA4       0.0839
     72 H39        27.3009   10.2552   23.8129 H           1 FA4       0.2664
     73 H40        29.8656   12.0723   23.0570 H           1 FA4       0.2615
     74 H41        28.3360   11.6829   22.7102 H           1 FA4       0.2615
     75 H42        30.1950    9.9697   25.5787 H           1 FA4       0.2615
     76 H43        30.9113   11.1023   24.6914 H           1 FA4       0.2615
     77 H44        35.1181    5.9144   11.5888 H           1 FA4       0.2490
@<TRIPOS>BOND
     1     1     2  ar
     2     1     6  ar
     3     2     3  ar
     4     3     4  ar
     5     3     7   1
     6     4     5  ar
     7     4    27   1
     8     5     6  ar
     9     7     8   1
    10     8     9   1
    11     9    10   1
    12    10    11   1
    13    11    12   1
    14    12    13   1
    15    13    14   1
    16    14    15   1
    17    15    16   1
    18    16    17  am
    19    16    19   2
    20    17    18   1
    21    18    20   1
    22    18    21   1
    23    20    23   1
    24    21    22  am
    25    21    33   2
    26    22    32   1
    27    23    24   1
    28    24    25   1
    29    25    26   1
    30    27    28   1
    31    28    29  ar
    32    29    30  ar
    33    29    31  ar
    34     1    34   1
    35     2    35   1
    36     5    36   1
    37     6    37   1
    38     7    38   1
    39     7    39   1
    40     8    40   1
    41     8    41   1
    42     9    42   1
    43     9    43   1
    44    10    44   1
    45    10    45   1
    46    11    46   1
    47    11    47   1
    48    12    48   1
    49    12    49   1
    50    13    50   1
    51    13    51   1
    52    14    52   1
    53    14    53   1
    54    15    54   1
    55    15    55   1
    56    17    56   1
    57    18    57   1
    58    20    58   1
    59    20    59   1
    60    22    60   1
    61    23    61   1
    62    23    62   1
    63    24    63   1
    64    24    64   1
    65    25    65   1
    66    25    66   1
    67    26    67   1
    68    26    68   1
    69    26    69   1
    70    27    70   1
    71    27    71   1
    72    28    72   1
    73    30    73   1
    74    30    74   1
    75    31    75   1
    76    31    76   1
    77    32    77   1
@<TRIPOS>SUBSTRUCTURE
     1  FA4      1

