@<TRIPOS>MOLECULE
2d1o_ligand_075
    77    77
SMALL
GAST_HUCK
****
This file was generated by PARSER (from files_GN.cpp)

@<TRIPOS>ATOM
      1 C1         30.0211    8.9337   15.8126 C.ar        1 FA4      -0.0755
      2 C2         31.3239    8.7926   15.3132 C.ar        1 FA4      -0.0668
      3 C3         32.0152    7.5537   15.4009 C.ar        1 FA4      -0.0377
      4 C4         31.3376    6.4266   15.9615 C.ar        1 FA4      -0.0050
      5 C5         30.0196    6.5950   16.4523 C.ar        1 FA4      -0.0635
      6 C6         29.3701    7.8368   16.3936 C.ar        1 FA4      -0.0754
      7 C7         33.3889    7.5055   14.8074 C.3         1 FA4      -0.0215
      8 C8         34.4326    8.4080   15.5407 C.3         1 FA4      -0.0443
      9 C9         35.7812    8.6175   14.7839 C.3         1 FA4      -0.0514
     10 C10        35.6274    8.6134   13.2327 C.3         1 FA4      -0.0529
     11 C11        36.8215    9.1739   12.3954 C.3         1 FA4      -0.0530
     12 C12        36.5460   10.5253   11.6592 C.3         1 FA4      -0.0529
     13 C13        35.2170   10.6721   10.8502 C.3         1 FA4      -0.0510
     14 C14        34.7391    9.4433   10.0088 C.3         1 FA4      -0.0361
     15 C15        35.4641    9.2276    8.6465 C.3         1 FA4       0.0374
     16 C16        36.8935    9.4923    8.6947 C.2         1 FA4       0.1782
     17 N17        37.3912   10.5039    7.9835 N.am        1 FA4      -0.2657
     18 C18        38.7456   10.9935    8.0112 C.3         1 FA4       0.1325
     19 O19        37.5928    8.8055    9.4401 O.2         1 FA4      -0.3969
     20 C20        38.7357   12.5380    8.2615 C.3         1 FA4      -0.0123
     21 C21        39.4010   10.5810    6.7721 C.2         1 FA4       0.2244
     22 N22        39.6069    9.2920    6.5497 N.am        1 FA4      -0.1623
     23 C23        38.2292   12.9378    9.6766 C.3         1 FA4      -0.0440
     24 C24        38.2784   14.4605    9.9872 C.3         1 FA4      -0.0124
     25 C25        37.4922   15.3737    9.0116 C.3         1 FA4      -0.0354
     26 N26        36.1192   14.9124    8.7634 N.4         1 FA4       0.2185
     27 C27        31.9303    5.0575   16.0070 C.3         1 FA4       0.0939
     28 N28        31.7925    4.4104   14.7697 N.pl3       1 FA4      -0.2620
     29 C29        30.8747    3.5912   14.4012 C.cat       1 FA4       0.2900
     30 N30        30.9784    3.0918   13.2293 N.pl3       1 FA4      -0.2847
     31 N31        29.8759    3.2243   15.1133 N.pl3       1 FA4      -0.2847
     32 O32        40.1875    8.8313    5.4715 O.3         1 FA4      -0.2717
     33 O33        39.7658   11.4033    5.9378 O.2         1 FA4      -0.3944
     34 H1         29.5488    9.8352   15.7494 H           1 FA4       0.0541
     35 H2         31.7551    9.6079   14.8701 H           1 FA4       0.0537
     36 H3         29.5117    5.8054   16.8495 H           1 FA4       0.0538
     37 H4         28.4138    7.9327   16.7418 H           1 FA4       0.0541
     38 H5         33.2959    7.8361   13.7683 H           1 FA4       0.0411
     39 H6         33.8058    6.4970   14.7748 H           1 FA4       0.0411
     40 H7         34.6495    7.9886   16.5293 H           1 FA4       0.0286
     41 H8         34.0086    9.4056   15.6940 H           1 FA4       0.0286
     42 H9         36.5019    7.8464   15.0767 H           1 FA4       0.0267
     43 H10        36.1940    9.5831   15.1000 H           1 FA4       0.0267
     44 H11        34.7257    9.1791   13.0065 H           1 FA4       0.0265
     45 H12        35.4448    7.5808   12.9165 H           1 FA4       0.0265
     46 H13        37.1140    8.4374   11.6310 H           1 FA4       0.0265
     47 H14        37.6978    9.3189   13.0424 H           1 FA4       0.0265
     48 H15        37.3826   10.7042   10.9830 H           1 FA4       0.0265
     49 H16        36.5595   11.3231   12.4079 H           1 FA4       0.0265
     50 H17        35.3100   11.5392   10.1851 H           1 FA4       0.0267
     51 H18        34.4187   10.9248   11.5595 H           1 FA4       0.0267
     52 H19        33.6761    9.5919    9.7905 H           1 FA4       0.0290
     53 H20        34.8071    8.5267   10.6025 H           1 FA4       0.0290
     54 H21        34.9689    9.8638    7.8986 H           1 FA4       0.0502
     55 H22        35.3064    8.1871    8.3402 H           1 FA4       0.0502
     56 H23        36.7718   10.9770    7.3927 H           1 FA4       0.1882
     57 H24        39.3122   10.5418    8.8374 H           1 FA4       0.0799
     58 H25        38.1102   13.0170    7.5011 H           1 FA4       0.0312
     59 H26        39.7559   12.9170    8.1463 H           1 FA4       0.0312
     60 H27        39.2782    8.6454    7.1998 H           1 FA4       0.2217
     61 H28        38.8491   12.4258   10.4191 H           1 FA4       0.0269
     62 H29        37.2011   12.5854    9.8060 H           1 FA4       0.0269
     63 H30        39.3213   14.7874   10.0036 H           1 FA4       0.0317
     64 H31        37.8753   14.6112   10.9924 H           1 FA4       0.0317
     65 H32        38.0156   15.4404    8.0556 H           1 FA4       0.0813
     66 H33        37.4370   16.3807    9.4330 H           1 FA4       0.0813
     67 H34        35.6312   15.5980    8.1821 H           1 FA4       0.1994
     68 H35        35.6208   14.8055    9.6504 H           1 FA4       0.1994
     69 H36        36.1426   14.0144    8.2751 H           1 FA4       0.1994
     70 H37        31.4880    4.4661   16.8110 H           1 FA4       0.0839
     71 H38        32.9911    5.1194   16.2601 H           1 FA4       0.0839
     72 H39        32.4555    4.5825   14.1287 H           1 FA4       0.2664
     73 H40        30.3662    2.4575   12.9274 H           1 FA4       0.2615
     74 H41        31.6980    3.3313   12.6852 H           1 FA4       0.2615
     75 H42        29.7588    3.5613   15.9779 H           1 FA4       0.2615
     76 H43        29.2543    2.6197   14.7630 H           1 FA4       0.2615
     77 H44        41.1307    9.0950    5.5430 H           1 FA4       0.2490
@<TRIPOS>BOND
     1     1     2  ar
     2     1     6  ar
     3     2     3  ar
     4     3     4  ar
     5     3     7   1
     6     4     5  ar
     7     4    27   1
     8     5     6  ar
     9     7     8   1
    10     8     9   1
    11     9    10   1
    12    10    11   1
    13    11    12   1
    14    12    13   1
    15    13    14   1
    16    14    15   1
    17    15    16   1
    18    16    17  am
    19    16    19   2
    20    17    18   1
    21    18    20   1
    22    18    21   1
    23    20    23   1
    24    21    22  am
    25    21    33   2
    26    22    32   1
    27    23    24   1
    28    24    25   1
    29    25    26   1
    30    27    28   1
    31    28    29  ar
    32    29    30  ar
    33    29    31  ar
    34     1    34   1
    35     2    35   1
    36     5    36   1
    37     6    37   1
    38     7    38   1
    39     7    39   1
    40     8    40   1
    41     8    41   1
    42     9    42   1
    43     9    43   1
    44    10    44   1
    45    10    45   1
    46    11    46   1
    47    11    47   1
    48    12    48   1
    49    12    49   1
    50    13    50   1
    51    13    51   1
    52    14    52   1
    53    14    53   1
    54    15    54   1
    55    15    55   1
    56    17    56   1
    57    18    57   1
    58    20    58   1
    59    20    59   1
    60    22    60   1
    61    23    61   1
    62    23    62   1
    63    24    63   1
    64    24    64   1
    65    25    65   1
    66    25    66   1
    67    26    67   1
    68    26    68   1
    69    26    69   1
    70    27    70   1
    71    27    71   1
    72    28    72   1
    73    30    73   1
    74    30    74   1
    75    31    75   1
    76    31    76   1
    77    32    77   1
@<TRIPOS>SUBSTRUCTURE
     1  FA4      1

