@<TRIPOS>MOLECULE
2d1o_ligand_028
    77    77
SMALL
GAST_HUCK
****
This file was generated by PARSER (from files_GN.cpp)

@<TRIPOS>ATOM
      1 C1         22.9060    7.2300   13.9534 C.ar        1 FA4      -0.0755
      2 C2         23.3520    5.9958   13.4555 C.ar        1 FA4      -0.0668
      3 C3         22.5504    4.8242   13.5371 C.ar        1 FA4      -0.0377
      4 C4         21.2185    4.9449   14.0613 C.ar        1 FA4      -0.0050
      5 C5         20.8143    6.1926   14.6020 C.ar        1 FA4      -0.0635
      6 C6         21.6402    7.3256   14.5433 C.ar        1 FA4      -0.0754
      7 C7         23.0986    3.5066   13.0726 C.3         1 FA4      -0.0215
      8 C8         24.6366    3.2820   12.9455 C.3         1 FA4      -0.0443
      9 C9         25.4186    3.5547   14.2588 C.3         1 FA4      -0.0514
     10 C10        26.9577    3.4317   14.0826 C.3         1 FA4      -0.0529
     11 C11        27.7174    3.2986   15.4430 C.3         1 FA4      -0.0530
     12 C12        28.9755    4.2055   15.5785 C.3         1 FA4      -0.0529
     13 C13        28.6352    5.7082   15.8216 C.3         1 FA4      -0.0510
     14 C14        29.8337    6.6725   15.5954 C.3         1 FA4      -0.0361
     15 C15        30.7891    6.8385   16.8145 C.3         1 FA4       0.0374
     16 C16        32.0823    7.3783   16.4271 C.2         1 FA4       0.1782
     17 N17        32.1514    8.4751   15.6706 N.am        1 FA4      -0.2657
     18 C18        33.2974    8.8872   14.9047 C.3         1 FA4       0.1325
     19 O19        33.0875    6.7428   16.7227 O.2         1 FA4      -0.3969
     20 C20        33.5444   10.4373   14.9794 C.3         1 FA4      -0.0123
     21 C21        33.1231    8.3406   13.5594 C.2         1 FA4       0.2244
     22 N22        33.8652    7.3460   13.1108 N.am        1 FA4      -0.1623
     23 C23        33.0235   11.3497   13.8312 C.3         1 FA4      -0.0440
     24 C24        33.2196   12.8736   14.1234 C.3         1 FA4      -0.0124
     25 C25        33.5878   13.7445   12.8873 C.3         1 FA4      -0.0354
     26 N26        32.4334   14.1916   12.0865 N.4         1 FA4       0.2185
     27 C27        20.2487    3.8023   14.1203 C.3         1 FA4       0.0939
     28 N28        18.8948    4.1143   13.9144 N.pl3       1 FA4      -0.2620
     29 C29        18.3225    4.4765   12.8263 C.cat       1 FA4       0.2900
     30 N30        18.9332    4.6422   11.7112 N.pl3       1 FA4      -0.2847
     31 N31        17.0632    4.6803   12.8679 N.pl3       1 FA4      -0.2847
     32 O32        33.5997    6.7841   11.9625 O.3         1 FA4      -0.2717
     33 O33        32.1641    8.7084   12.8893 O.2         1 FA4      -0.3944
     34 H1         23.5093    8.0581   13.9026 H           1 FA4       0.0541
     35 H2         24.2862    5.9752   13.0368 H           1 FA4       0.0537
     36 H3         19.8976    6.2965   15.0402 H           1 FA4       0.0538
     37 H4         21.3135    8.2221   14.9143 H           1 FA4       0.0541
     38 H5         22.6510    3.2975   12.0969 H           1 FA4       0.0411
     39 H6         22.7650    2.7248   13.7596 H           1 FA4       0.0411
     40 H7         25.0393    3.8907   12.1312 H           1 FA4       0.0286
     41 H8         24.8014    2.2341   12.6725 H           1 FA4       0.0286
     42 H9         25.0903    2.8423   15.0249 H           1 FA4       0.0267
     43 H10        25.1936    4.5635   14.6157 H           1 FA4       0.0267
     44 H11        27.3116    4.3031   13.5214 H           1 FA4       0.0265
     45 H12        27.1737    2.5514   13.4667 H           1 FA4       0.0265
     46 H13        28.0370    2.2584   15.5590 H           1 FA4       0.0265
     47 H14        27.0559    3.5186   16.2848 H           1 FA4       0.0265
     48 H15        29.5824    4.0993   14.6724 H           1 FA4       0.0265
     49 H16        29.5730    3.8396   16.4207 H           1 FA4       0.0265
     50 H17        28.2474    5.8360   16.8380 H           1 FA4       0.0267
     51 H18        27.8395    6.0059   15.1318 H           1 FA4       0.0267
     52 H19        29.4293    7.6597   15.3504 H           1 FA4       0.0290
     53 H20        30.3898    6.3256   14.7202 H           1 FA4       0.0290
     54 H21        30.9272    5.8669   17.3003 H           1 FA4       0.0502
     55 H22        30.3293    7.5051   17.5499 H           1 FA4       0.0502
     56 H23        31.3121    8.9113   15.4518 H           1 FA4       0.1882
     57 H24        34.1985    8.4459   15.3408 H           1 FA4       0.0799
     58 H25        34.6290   10.5993   15.0192 H           1 FA4       0.0312
     59 H26        33.1406   10.8165   15.9234 H           1 FA4       0.0312
     60 H27        34.5805    6.9917   13.6624 H           1 FA4       0.2217
     61 H28        31.9587   11.1705   13.6564 H           1 FA4       0.0269
     62 H29        33.5705   11.1044   12.9159 H           1 FA4       0.0269
     63 H30        34.0347   13.0058   14.8441 H           1 FA4       0.0317
     64 H31        32.3102   13.2800   14.5897 H           1 FA4       0.0317
     65 H32        34.2765   13.2011   12.2350 H           1 FA4       0.0813
     66 H33        34.1062   14.6481   13.2357 H           1 FA4       0.0813
     67 H34        32.7724   14.8173   11.3472 H           1 FA4       0.1994
     68 H35        31.7733   14.7024   12.6855 H           1 FA4       0.1994
     69 H36        31.9634   13.3944   11.6531 H           1 FA4       0.1994
     70 H37        20.3314    3.3615   15.1156 H           1 FA4       0.0839
     71 H38        20.5068    3.0211   13.4017 H           1 FA4       0.0839
     72 H39        18.3343    4.0066   14.6579 H           1 FA4       0.2664
     73 H40        18.4713    4.9256   10.9479 H           1 FA4       0.2615
     74 H41        19.8560    4.4969   11.6623 H           1 FA4       0.2615
     75 H42        16.6007    4.5616   13.6720 H           1 FA4       0.2615
     76 H43        16.5946    4.9586   12.1074 H           1 FA4       0.2615
     77 H44        33.9789    5.8794   12.0109 H           1 FA4       0.2490
@<TRIPOS>BOND
     1     1     2  ar
     2     1     6  ar
     3     2     3  ar
     4     3     4  ar
     5     3     7   1
     6     4     5  ar
     7     4    27   1
     8     5     6  ar
     9     7     8   1
    10     8     9   1
    11     9    10   1
    12    10    11   1
    13    11    12   1
    14    12    13   1
    15    13    14   1
    16    14    15   1
    17    15    16   1
    18    16    17  am
    19    16    19   2
    20    17    18   1
    21    18    20   1
    22    18    21   1
    23    20    23   1
    24    21    22  am
    25    21    33   2
    26    22    32   1
    27    23    24   1
    28    24    25   1
    29    25    26   1
    30    27    28   1
    31    28    29  ar
    32    29    30  ar
    33    29    31  ar
    34     1    34   1
    35     2    35   1
    36     5    36   1
    37     6    37   1
    38     7    38   1
    39     7    39   1
    40     8    40   1
    41     8    41   1
    42     9    42   1
    43     9    43   1
    44    10    44   1
    45    10    45   1
    46    11    46   1
    47    11    47   1
    48    12    48   1
    49    12    49   1
    50    13    50   1
    51    13    51   1
    52    14    52   1
    53    14    53   1
    54    15    54   1
    55    15    55   1
    56    17    56   1
    57    18    57   1
    58    20    58   1
    59    20    59   1
    60    22    60   1
    61    23    61   1
    62    23    62   1
    63    24    63   1
    64    24    64   1
    65    25    65   1
    66    25    66   1
    67    26    67   1
    68    26    68   1
    69    26    69   1
    70    27    70   1
    71    27    71   1
    72    28    72   1
    73    30    73   1
    74    30    74   1
    75    31    75   1
    76    31    76   1
    77    32    77   1
@<TRIPOS>SUBSTRUCTURE
     1  FA4      1

