@<TRIPOS>MOLECULE
2d1o_ligand_087
    77    77
SMALL
GAST_HUCK
****
This file was generated by PARSER (from files_GN.cpp)

@<TRIPOS>ATOM
      1 C1         27.5669    8.7268   23.7553 C.ar        1 FA4      -0.0755
      2 C2         27.6187    8.2089   22.4503 C.ar        1 FA4      -0.0668
      3 C3         28.5669    7.2145   22.0851 C.ar        1 FA4      -0.0377
      4 C4         29.5080    6.7644   23.0694 C.ar        1 FA4      -0.0050
      5 C5         29.4352    7.3020   24.3829 C.ar        1 FA4      -0.0635
      6 C6         28.4754    8.2700   24.7223 C.ar        1 FA4      -0.0754
      7 C7         28.5179    6.7023   20.6763 C.3         1 FA4      -0.0215
      8 C8         29.0987    7.6994   19.6287 C.3         1 FA4      -0.0443
      9 C9         29.5112    6.9626   18.3230 C.3         1 FA4      -0.0514
     10 C10        29.6003    7.8528   17.0534 C.3         1 FA4      -0.0529
     11 C11        30.9166    8.6663   16.7919 C.3         1 FA4      -0.0530
     12 C12        32.2597    7.9281   17.1018 C.3         1 FA4      -0.0529
     13 C13        33.4963    8.6891   16.5414 C.3         1 FA4      -0.0510
     14 C14        33.7463   10.0863   17.1927 C.3         1 FA4      -0.0361
     15 C15        34.6909   11.0364   16.3905 C.3         1 FA4       0.0374
     16 C16        35.5942   10.3689   15.4711 C.2         1 FA4       0.1782
     17 N17        35.1877   10.1462   14.2207 N.am        1 FA4      -0.2657
     18 C18        35.7783    9.2729   13.2549 C.3         1 FA4       0.1325
     19 O19        36.6534    9.9266   15.8985 O.2         1 FA4      -0.3969
     20 C20        36.7403   10.0299   12.2885 C.3         1 FA4      -0.0123
     21 C21        34.6770    8.6504   12.5287 C.2         1 FA4       0.2244
     22 N22        34.5397    7.3357   12.4879 N.am        1 FA4      -0.1623
     23 C23        38.2317   10.0741   12.7446 C.3         1 FA4      -0.0440
     24 C24        38.5845   11.3240   13.6035 C.3         1 FA4      -0.0124
     25 C25        40.0056   11.2532   14.2174 C.3         1 FA4      -0.0354
     26 N26        40.3720   12.5361   14.8370 N.4         1 FA4       0.2185
     27 C27        30.5782    5.7631   22.7709 C.3         1 FA4       0.0939
     28 N28        30.1005    4.4512   22.7715 N.pl3       1 FA4      -0.2620
     29 C29        30.0894    3.6075   23.7413 C.cat       1 FA4       0.2900
     30 N30        29.5916    2.4521   23.5137 N.pl3       1 FA4      -0.2847
     31 N31        30.5511    3.8410   24.9160 N.pl3       1 FA4      -0.2847
     32 O32        33.5733    6.7655   11.8191 O.3         1 FA4      -0.2717
     33 O33        33.8672    9.3512   11.9333 O.2         1 FA4      -0.3944
     34 H1         26.8826    9.4430   23.9973 H           1 FA4       0.0541
     35 H2         26.9381    8.5528   21.7668 H           1 FA4       0.0537
     36 H3         30.0918    6.9946   25.1040 H           1 FA4       0.0538
     37 H4         28.4494    8.6492   25.6707 H           1 FA4       0.0541
     38 H5         27.4713    6.4809   20.4403 H           1 FA4       0.0411
     39 H6         29.0516    5.7529   20.5828 H           1 FA4       0.0411
     40 H7         29.9827    8.1938   20.0553 H           1 FA4       0.0286
     41 H8         28.3325    8.4505   19.3920 H           1 FA4       0.0286
     42 H9         28.7652    6.1958   18.0945 H           1 FA4       0.0267
     43 H10        30.4631    6.4394   18.4671 H           1 FA4       0.0267
     44 H11        28.7649    8.5731   17.0782 H           1 FA4       0.0265
     45 H12        29.4331    7.1954   16.1822 H           1 FA4       0.0265
     46 H13        30.8866    9.6189   17.3569 H           1 FA4       0.0265
     47 H14        30.8947    8.9175   15.7152 H           1 FA4       0.0265
     48 H15        32.2400    6.9342   16.6353 H           1 FA4       0.0265
     49 H16        32.3578    7.7916   18.1874 H           1 FA4       0.0265
     50 H17        33.3997    8.7875   15.4513 H           1 FA4       0.0267
     51 H18        34.3826    8.0751   16.7267 H           1 FA4       0.0267
     52 H19        34.1858    9.9256   18.1814 H           1 FA4       0.0290
     53 H20        32.8009   10.6221   17.3235 H           1 FA4       0.0290
     54 H21        35.2908   11.6315   17.0928 H           1 FA4       0.0502
     55 H22        34.0657   11.7542   15.8392 H           1 FA4       0.0502
     56 H23        34.3564   10.5782   13.9603 H           1 FA4       0.1882
     57 H24        36.3722    8.4937   13.7509 H           1 FA4       0.0799
     58 H25        36.3887   11.0561   12.1161 H           1 FA4       0.0312
     59 H26        36.7054    9.5112   11.3257 H           1 FA4       0.0312
     60 H27        35.1480    6.7728   12.9981 H           1 FA4       0.2217
     61 H28        38.8697   10.0941   11.8580 H           1 FA4       0.0269
     62 H29        38.4666    9.1581   13.2948 H           1 FA4       0.0269
     63 H30        37.8717   11.4384   14.4268 H           1 FA4       0.0317
     64 H31        38.5170   12.2201   12.9726 H           1 FA4       0.0317
     65 H32        40.7384   11.0143   13.4387 H           1 FA4       0.0813
     66 H33        40.0450   10.4821   14.9906 H           1 FA4       0.0813
     67 H34        41.3032   12.4567   15.2579 H           1 FA4       0.1994
     68 H35        39.6896   12.7691   15.5642 H           1 FA4       0.1994
     69 H36        40.3810   13.2742   14.1255 H           1 FA4       0.1994
     70 H37        31.4259    5.8462   23.4545 H           1 FA4       0.0839
     71 H38        30.9762    5.9859   21.7786 H           1 FA4       0.0839
     72 H39        29.7647    4.1332   21.9638 H           1 FA4       0.2664
     73 H40        29.5674    1.8109   24.1953 H           1 FA4       0.2615
     74 H41        29.2489    2.2531   22.6663 H           1 FA4       0.2615
     75 H42        30.9286    4.6710   25.1206 H           1 FA4       0.2615
     76 H43        30.5072    3.1766   25.5733 H           1 FA4       0.2615
     77 H44        33.8622    5.8350   11.7040 H           1 FA4       0.2490
@<TRIPOS>BOND
     1     1     2  ar
     2     1     6  ar
     3     2     3  ar
     4     3     4  ar
     5     3     7   1
     6     4     5  ar
     7     4    27   1
     8     5     6  ar
     9     7     8   1
    10     8     9   1
    11     9    10   1
    12    10    11   1
    13    11    12   1
    14    12    13   1
    15    13    14   1
    16    14    15   1
    17    15    16   1
    18    16    17  am
    19    16    19   2
    20    17    18   1
    21    18    20   1
    22    18    21   1
    23    20    23   1
    24    21    22  am
    25    21    33   2
    26    22    32   1
    27    23    24   1
    28    24    25   1
    29    25    26   1
    30    27    28   1
    31    28    29  ar
    32    29    30  ar
    33    29    31  ar
    34     1    34   1
    35     2    35   1
    36     5    36   1
    37     6    37   1
    38     7    38   1
    39     7    39   1
    40     8    40   1
    41     8    41   1
    42     9    42   1
    43     9    43   1
    44    10    44   1
    45    10    45   1
    46    11    46   1
    47    11    47   1
    48    12    48   1
    49    12    49   1
    50    13    50   1
    51    13    51   1
    52    14    52   1
    53    14    53   1
    54    15    54   1
    55    15    55   1
    56    17    56   1
    57    18    57   1
    58    20    58   1
    59    20    59   1
    60    22    60   1
    61    23    61   1
    62    23    62   1
    63    24    63   1
    64    24    64   1
    65    25    65   1
    66    25    66   1
    67    26    67   1
    68    26    68   1
    69    26    69   1
    70    27    70   1
    71    27    71   1
    72    28    72   1
    73    30    73   1
    74    30    74   1
    75    31    75   1
    76    31    76   1
    77    32    77   1
@<TRIPOS>SUBSTRUCTURE
     1  FA4      1

