@<TRIPOS>MOLECULE
2d1o_ligand_036
    77    77
SMALL
GAST_HUCK
****
This file was generated by PARSER (from files_GN.cpp)

@<TRIPOS>ATOM
      1 C1         29.5860    2.8950   23.8715 C.ar        1 FA4      -0.0755
      2 C2         29.3834    3.8577   22.8701 C.ar        1 FA4      -0.0668
      3 C3         28.1041    4.4233   22.6389 C.ar        1 FA4      -0.0377
      4 C4         27.0018    4.0118   23.4534 C.ar        1 FA4      -0.0050
      5 C5         27.2332    3.0400   24.4597 C.ar        1 FA4      -0.0635
      6 C6         28.5064    2.4822   24.6663 C.ar        1 FA4      -0.0754
      7 C7         27.9882    5.4560   21.5610 C.3         1 FA4      -0.0215
      8 C8         28.3773    6.8779   22.0716 C.3         1 FA4      -0.0443
      9 C9         27.6648    8.0863   21.3697 C.3         1 FA4      -0.0514
     10 C10        28.6209    9.0179   20.5754 C.3         1 FA4      -0.0529
     11 C11        28.9746    8.4541   19.1730 C.3         1 FA4      -0.0530
     12 C12        30.2796    9.0547   18.5975 C.3         1 FA4      -0.0529
     13 C13        30.7808    8.3678   17.2981 C.3         1 FA4      -0.0510
     14 C14        31.3569    6.9336   17.5077 C.3         1 FA4      -0.0361
     15 C15        32.0465    6.3160   16.2612 C.3         1 FA4       0.0374
     16 C16        33.1767    7.1035   15.8074 C.2         1 FA4       0.1782
     17 N17        33.0099    7.9241   14.7851 N.am        1 FA4      -0.2657
     18 C18        33.9628    8.8195   14.1996 C.3         1 FA4       0.1325
     19 O19        34.2240    7.0720   16.4454 O.2         1 FA4      -0.3969
     20 C20        33.3599   10.2619   14.2402 C.3         1 FA4      -0.0123
     21 C21        34.2057    8.2733   12.8701 C.2         1 FA4       0.2244
     22 N22        35.1925    7.4188   12.6597 N.am        1 FA4      -0.1623
     23 C23        34.1011   11.3365   13.3904 C.3         1 FA4      -0.0440
     24 C24        33.2984   12.6661   13.2485 C.3         1 FA4      -0.0124
     25 C25        33.7185   13.5283   12.0247 C.3         1 FA4      -0.0354
     26 N26        32.5879   14.3126   11.5099 N.4         1 FA4       0.2185
     27 C27        25.5952    4.4967   23.2567 C.3         1 FA4       0.0939
     28 N28        25.4276    5.8861   23.2361 N.pl3       1 FA4      -0.2620
     29 C29        25.5039    6.7230   24.2043 C.cat       1 FA4       0.2900
     30 N30        25.3500    7.9594   23.9273 N.pl3       1 FA4      -0.2847
     31 N31        25.7231    6.4097   25.4229 N.pl3       1 FA4      -0.2847
     32 O32        35.3968    6.8375   11.5032 O.3         1 FA4      -0.2717
     33 O33        33.3798    8.4582   11.9890 O.2         1 FA4      -0.3944
     34 H1         30.5122    2.4881   24.0215 H           1 FA4       0.0541
     35 H2         30.1855    4.1363   22.3016 H           1 FA4       0.0537
     36 H3         26.4660    2.7065   25.0499 H           1 FA4       0.0538
     37 H4         28.6456    1.7735   25.3917 H           1 FA4       0.0541
     38 H5         26.9804    5.4629   21.1549 H           1 FA4       0.0411
     39 H6         28.6358    5.1916   20.7205 H           1 FA4       0.0411
     40 H7         29.4623    6.9775   21.9807 H           1 FA4       0.0286
     41 H8         28.1631    6.9487   23.1415 H           1 FA4       0.0286
     42 H9         27.1814    8.6993   22.1371 H           1 FA4       0.0267
     43 H10        26.8690    7.7437   20.7035 H           1 FA4       0.0267
     44 H11        29.5231    9.1758   21.1726 H           1 FA4       0.0265
     45 H12        28.1458    9.9951   20.4519 H           1 FA4       0.0265
     46 H13        28.1472    8.6682   18.4903 H           1 FA4       0.0265
     47 H14        29.0859    7.3727   19.2333 H           1 FA4       0.0265
     48 H15        31.0707    8.9937   19.3516 H           1 FA4       0.0265
     49 H16        30.1043   10.1136   18.3857 H           1 FA4       0.0265
     50 H17        31.5717    9.0043   16.8907 H           1 FA4       0.0267
     51 H18        29.9706    8.3397   16.5629 H           1 FA4       0.0267
     52 H19        30.5498    6.2584   17.7977 H           1 FA4       0.0290
     53 H20        32.0769    6.9601   18.3292 H           1 FA4       0.0290
     54 H21        31.3031    6.2125   15.4633 H           1 FA4       0.0502
     55 H22        32.3902    5.3067   16.5020 H           1 FA4       0.0502
     56 H23        32.1420    7.8908   14.3464 H           1 FA4       0.1882
     57 H24        34.9036    8.8371   14.7636 H           1 FA4       0.0799
     58 H25        33.3385   10.6004   15.2794 H           1 FA4       0.0312
     59 H26        32.3220   10.2102   13.8972 H           1 FA4       0.0312
     60 H27        35.7417    7.1477   13.4106 H           1 FA4       0.2217
     61 H28        34.2698   10.9261   12.3954 H           1 FA4       0.0269
     62 H29        35.0784   11.5483   13.8321 H           1 FA4       0.0269
     63 H30        33.4202   13.2596   14.1593 H           1 FA4       0.0317
     64 H31        32.2344   12.4348   13.1541 H           1 FA4       0.0317
     65 H32        34.0677   12.8983   11.2049 H           1 FA4       0.0813
     66 H33        34.5250   14.2094   12.3041 H           1 FA4       0.0813
     67 H34        32.8978   14.8847   10.7232 H           1 FA4       0.1994
     68 H35        32.2161   14.9148   12.2458 H           1 FA4       0.1994
     69 H36        31.8613   13.6667   11.1913 H           1 FA4       0.1994
     70 H37        24.9092    4.0810   23.9999 H           1 FA4       0.0839
     71 H38        25.2593    4.1135   22.2916 H           1 FA4       0.0839
     72 H39        25.2379    6.2496   22.3955 H           1 FA4       0.2664
     73 H40        25.4194    8.6066   24.5983 H           1 FA4       0.2615
     74 H41        25.1936    8.2261   23.0441 H           1 FA4       0.2615
     75 H42        25.8292    5.5144   25.6718 H           1 FA4       0.2615
     76 H43        25.7666    7.0781   26.0783 H           1 FA4       0.2615
     77 H44        35.0703    5.9178   11.6124 H           1 FA4       0.2490
@<TRIPOS>BOND
     1     1     2  ar
     2     1     6  ar
     3     2     3  ar
     4     3     4  ar
     5     3     7   1
     6     4     5  ar
     7     4    27   1
     8     5     6  ar
     9     7     8   1
    10     8     9   1
    11     9    10   1
    12    10    11   1
    13    11    12   1
    14    12    13   1
    15    13    14   1
    16    14    15   1
    17    15    16   1
    18    16    17  am
    19    16    19   2
    20    17    18   1
    21    18    20   1
    22    18    21   1
    23    20    23   1
    24    21    22  am
    25    21    33   2
    26    22    32   1
    27    23    24   1
    28    24    25   1
    29    25    26   1
    30    27    28   1
    31    28    29  ar
    32    29    30  ar
    33    29    31  ar
    34     1    34   1
    35     2    35   1
    36     5    36   1
    37     6    37   1
    38     7    38   1
    39     7    39   1
    40     8    40   1
    41     8    41   1
    42     9    42   1
    43     9    43   1
    44    10    44   1
    45    10    45   1
    46    11    46   1
    47    11    47   1
    48    12    48   1
    49    12    49   1
    50    13    50   1
    51    13    51   1
    52    14    52   1
    53    14    53   1
    54    15    54   1
    55    15    55   1
    56    17    56   1
    57    18    57   1
    58    20    58   1
    59    20    59   1
    60    22    60   1
    61    23    61   1
    62    23    62   1
    63    24    63   1
    64    24    64   1
    65    25    65   1
    66    25    66   1
    67    26    67   1
    68    26    68   1
    69    26    69   1
    70    27    70   1
    71    27    71   1
    72    28    72   1
    73    30    73   1
    74    30    74   1
    75    31    75   1
    76    31    76   1
    77    32    77   1
@<TRIPOS>SUBSTRUCTURE
     1  FA4      1

