@<TRIPOS>MOLECULE
2d1o_ligand_006
    77    77
SMALL
GAST_HUCK
****
This file was generated by PARSER (from files_GN.cpp)

@<TRIPOS>ATOM
      1 C1         32.6282    8.3814   17.8332 C.ar        1 FA4      -0.0755
      2 C2         31.7006    7.3721   17.5358 C.ar        1 FA4      -0.0668
      3 C3         31.4194    6.9999   16.1945 C.ar        1 FA4      -0.0377
      4 C4         32.0984    7.6734   15.1281 C.ar        1 FA4      -0.0050
      5 C5         33.0400    8.6852   15.4601 C.ar        1 FA4      -0.0635
      6 C6         33.3073    9.0321   16.7935 C.ar        1 FA4      -0.0754
      7 C7         30.3945    5.9363   15.9758 C.3         1 FA4      -0.0215
      8 C8         29.0185    6.5433   15.5797 C.3         1 FA4      -0.0443
      9 C9         27.9686    5.4796   15.1638 C.3         1 FA4      -0.0514
     10 C10        28.0699    5.0380   13.6706 C.3         1 FA4      -0.0529
     11 C11        26.9321    4.0699   13.2427 C.3         1 FA4      -0.0530
     12 C12        27.1181    2.5962   13.7322 C.3         1 FA4      -0.0529
     13 C13        25.7821    1.7979   13.7936 C.3         1 FA4      -0.0510
     14 C14        25.0893    1.8748   15.1949 C.3         1 FA4      -0.0361
     15 C15        23.5967    1.4345   15.2081 C.3         1 FA4       0.0374
     16 C16        22.7114    2.2990   14.4353 C.2         1 FA4       0.1782
     17 N17        21.5349    2.6808   14.9315 N.am        1 FA4      -0.2657
     18 C18        20.5208    3.4859   14.2830 C.3         1 FA4       0.1325
     19 O19        23.0735    2.6786   13.3234 O.2         1 FA4      -0.3969
     20 C20        19.8884    2.7922   13.0188 C.3         1 FA4      -0.0123
     21 C21        20.8658    4.8993   14.0785 C.2         1 FA4       0.2244
     22 N22        21.9040    5.4755   14.6629 N.am        1 FA4      -0.1623
     23 C23        20.8103    2.5709   11.7760 C.3         1 FA4      -0.0440
     24 C24        20.0709    2.5275   10.4099 C.3         1 FA4      -0.0124
     25 C25        21.0609    2.6981    9.2207 C.3         1 FA4      -0.0354
     26 N26        20.4012    3.1993    8.0083 N.4         1 FA4       0.2185
     27 C27        31.8613    7.4271   13.6696 C.3         1 FA4       0.0939
     28 N28        32.9763    6.8539   13.0425 N.pl3       1 FA4      -0.2620
     29 C29        33.9663    7.4417   12.4731 C.cat       1 FA4       0.2900
     30 N30        34.8601    6.7126   11.9296 N.pl3       1 FA4      -0.2847
     31 N31        34.1258    8.7114   12.4013 N.pl3       1 FA4      -0.2847
     32 O32        22.1999    6.7396   14.4991 O.3         1 FA4      -0.2717
     33 O33        20.1086    5.5891   13.3941 O.2         1 FA4      -0.3944
     34 H1         32.8105    8.6467   18.8007 H           1 FA4       0.0541
     35 H2         31.2195    6.9181   18.3162 H           1 FA4       0.0537
     36 H3         33.5329    9.1974   14.7268 H           1 FA4       0.0538
     37 H4         33.9872    9.7665   17.0083 H           1 FA4       0.0541
     38 H5         30.2578    5.3485   16.8868 H           1 FA4       0.0411
     39 H6         30.7537    5.2280   15.2304 H           1 FA4       0.0411
     40 H7         29.1324    7.2716   14.7700 H           1 FA4       0.0286
     41 H8         28.6243    7.0797   16.4476 H           1 FA4       0.0286
     42 H9         26.9741    5.9065   15.3250 H           1 FA4       0.0267
     43 H10        28.0588    4.6118   15.8251 H           1 FA4       0.0267
     44 H11        29.0335    4.5595   13.4751 H           1 FA4       0.0265
     45 H12        28.0081    5.9359   13.0482 H           1 FA4       0.0265
     46 H13        26.8804    4.0602   12.1469 H           1 FA4       0.0265
     47 H14        25.9818    4.4851   13.5965 H           1 FA4       0.0265
     48 H15        27.5974    2.5622   14.7224 H           1 FA4       0.0265
     49 H16        27.8000    2.0955   13.0316 H           1 FA4       0.0265
     50 H17        25.9913    0.7447   13.5793 H           1 FA4       0.0267
     51 H18        25.1287    2.1623   12.9946 H           1 FA4       0.0267
     52 H19        25.1555    2.8935   15.5924 H           1 FA4       0.0290
     53 H20        25.6444    1.2255   15.8777 H           1 FA4       0.0290
     54 H21        23.2656    1.4134   16.2586 H           1 FA4       0.0502
     55 H22        23.5191    0.4091   14.8236 H           1 FA4       0.0502
     56 H23        21.3417    2.4191   15.8571 H           1 FA4       0.1882
     57 H24        19.7034    3.5042   15.0160 H           1 FA4       0.0799
     58 H25        19.0341    3.3936   12.7027 H           1 FA4       0.0312
     59 H26        19.4865    1.8204   13.3230 H           1 FA4       0.0312
     60 H27        22.4703    4.9441   15.2500 H           1 FA4       0.2217
     61 H28        21.3513    1.6242   11.8990 H           1 FA4       0.0269
     62 H29        21.5394    3.3852   11.7288 H           1 FA4       0.0269
     63 H30        19.3427    3.3428   10.3867 H           1 FA4       0.0317
     64 H31        19.5251    1.5841   10.3016 H           1 FA4       0.0317
     65 H32        21.5453    1.7437    8.9931 H           1 FA4       0.0813
     66 H33        21.8262    3.4278    9.4810 H           1 FA4       0.0813
     67 H34        21.1218    3.4531    7.3202 H           1 FA4       0.1994
     68 H35        19.8538    4.0302    8.2545 H           1 FA4       0.1994
     69 H36        19.7978    2.4694    7.6201 H           1 FA4       0.1994
     70 H37        31.5537    8.3648   13.2011 H           1 FA4       0.0839
     71 H38        31.0325    6.7442   13.4955 H           1 FA4       0.0839
     72 H39        32.9979    5.9167   13.0106 H           1 FA4       0.2664
     73 H40        35.5961    7.1171   11.5168 H           1 FA4       0.2615
     74 H41        34.7745    5.7796   11.9223 H           1 FA4       0.2615
     75 H42        33.4937    9.2917   12.7710 H           1 FA4       0.2615
     76 H43        34.8774    9.0602   11.9662 H           1 FA4       0.2615
     77 H44        23.0030    6.8788   15.0445 H           1 FA4       0.2490
@<TRIPOS>BOND
     1     1     2  ar
     2     1     6  ar
     3     2     3  ar
     4     3     4  ar
     5     3     7   1
     6     4     5  ar
     7     4    27   1
     8     5     6  ar
     9     7     8   1
    10     8     9   1
    11     9    10   1
    12    10    11   1
    13    11    12   1
    14    12    13   1
    15    13    14   1
    16    14    15   1
    17    15    16   1
    18    16    17  am
    19    16    19   2
    20    17    18   1
    21    18    20   1
    22    18    21   1
    23    20    23   1
    24    21    22  am
    25    21    33   2
    26    22    32   1
    27    23    24   1
    28    24    25   1
    29    25    26   1
    30    27    28   1
    31    28    29  ar
    32    29    30  ar
    33    29    31  ar
    34     1    34   1
    35     2    35   1
    36     5    36   1
    37     6    37   1
    38     7    38   1
    39     7    39   1
    40     8    40   1
    41     8    41   1
    42     9    42   1
    43     9    43   1
    44    10    44   1
    45    10    45   1
    46    11    46   1
    47    11    47   1
    48    12    48   1
    49    12    49   1
    50    13    50   1
    51    13    51   1
    52    14    52   1
    53    14    53   1
    54    15    54   1
    55    15    55   1
    56    17    56   1
    57    18    57   1
    58    20    58   1
    59    20    59   1
    60    22    60   1
    61    23    61   1
    62    23    62   1
    63    24    63   1
    64    24    64   1
    65    25    65   1
    66    25    66   1
    67    26    67   1
    68    26    68   1
    69    26    69   1
    70    27    70   1
    71    27    71   1
    72    28    72   1
    73    30    73   1
    74    30    74   1
    75    31    75   1
    76    31    76   1
    77    32    77   1
@<TRIPOS>SUBSTRUCTURE
     1  FA4      1

