@<TRIPOS>MOLECULE
2d1o_ligand_070
    77    77
SMALL
GAST_HUCK
****
This file was generated by PARSER (from files_GN.cpp)

@<TRIPOS>ATOM
      1 C1         30.9063    5.7220   23.7373 C.ar        1 FA4      -0.0755
      2 C2         30.6238    6.2442   22.4696 C.ar        1 FA4      -0.0668
      3 C3         29.6178    7.2289   22.2681 C.ar        1 FA4      -0.0377
      4 C4         28.9328    7.7448   23.4159 C.ar        1 FA4      -0.0050
      5 C5         29.2291    7.1972   24.6859 C.ar        1 FA4      -0.0635
      6 C6         30.1982    6.1938   24.8546 C.ar        1 FA4      -0.0754
      7 C7         29.4202    7.7212   20.8672 C.3         1 FA4      -0.0215
      8 C8         29.0283    6.6287   19.8292 C.3         1 FA4      -0.0443
      9 C9         29.4078    7.0172   18.3712 C.3         1 FA4      -0.0514
     10 C10        30.9226    6.8061   18.0406 C.3         1 FA4      -0.0529
     11 C11        31.5453    7.8396   17.0660 C.3         1 FA4      -0.0530
     12 C12        31.6861    9.2810   17.6434 C.3         1 FA4      -0.0529
     13 C13        32.6050   10.2129   16.8008 C.3         1 FA4      -0.0510
     14 C14        34.0825   10.2479   17.2845 C.3         1 FA4      -0.0361
     15 C15        35.0464   11.0453   16.3573 C.3         1 FA4       0.0374
     16 C16        35.6664   10.2037   15.3581 C.2         1 FA4       0.1782
     17 N17        35.2070   10.1821   14.1148 N.am        1 FA4      -0.2657
     18 C18        35.6360    9.3453   13.0352 C.3         1 FA4       0.1325
     19 O19        36.6606    9.5451   15.6872 O.2         1 FA4      -0.3969
     20 C20        36.3698   10.2238   11.9698 C.3         1 FA4      -0.0123
     21 C21        34.4559    8.6773   12.5106 C.2         1 FA4       0.2244
     22 N22        34.2506    7.3865   12.6957 N.am        1 FA4      -0.1623
     23 C23        36.7124    9.4866   10.6414 C.3         1 FA4      -0.0440
     24 C24        36.7581   10.4352    9.4051 C.3         1 FA4      -0.0124
     25 C25        36.6348    9.6982    8.0491 C.3         1 FA4      -0.0354
     26 N26        35.3187    9.0583    7.8812 N.4         1 FA4       0.2185
     27 C27        27.9257    8.8590   23.3475 C.3         1 FA4       0.0939
     28 N28        28.3360   10.0083   22.6693 N.pl3       1 FA4      -0.2620
     29 C29        29.4373   10.6664   22.7625 C.cat       1 FA4       0.2900
     30 N30        29.5848   11.6866   22.0071 N.pl3       1 FA4      -0.2847
     31 N31        30.4072   10.3637   23.5430 N.pl3       1 FA4      -0.2847
     32 O32        33.2307    6.7700   12.1712 O.3         1 FA4      -0.2717
     33 O33        33.6801    9.3050   11.7803 O.2         1 FA4      -0.3944
     34 H1         31.6214    5.0025   23.8564 H           1 FA4       0.0541
     35 H2         31.1941    5.9175   21.6810 H           1 FA4       0.0537
     36 H3         28.7589    7.5443   25.5262 H           1 FA4       0.0538
     37 H4         30.4121    5.8290   25.7841 H           1 FA4       0.0541
     38 H5         30.3512    8.2171   20.5821 H           1 FA4       0.0411
     39 H6         28.6472    8.4863   20.7990 H           1 FA4       0.0411
     40 H7         27.9454    6.4803   19.8903 H           1 FA4       0.0286
     41 H8         29.4965    5.6672   20.0575 H           1 FA4       0.0286
     42 H9         29.1136    8.0582   18.1989 H           1 FA4       0.0267
     43 H10        28.8175    6.4026   17.6816 H           1 FA4       0.0267
     44 H11        31.0388    5.8099   17.6007 H           1 FA4       0.0265
     45 H12        31.5252    6.7983   18.9511 H           1 FA4       0.0265
     46 H13        30.9462    7.8791   16.1514 H           1 FA4       0.0265
     47 H14        32.5374    7.4701   16.7923 H           1 FA4       0.0265
     48 H15        32.0676    9.2420   18.6692 H           1 FA4       0.0265
     49 H16        30.6914    9.7317   17.6895 H           1 FA4       0.0265
     50 H17        32.2102   11.2325   16.8628 H           1 FA4       0.0267
     51 H18        32.5622    9.9178   15.7483 H           1 FA4       0.0267
     52 H19        34.4500    9.2247   17.4083 H           1 FA4       0.0290
     53 H20        34.1060   10.7129   18.2766 H           1 FA4       0.0290
     54 H21        35.8219   11.5167   16.9728 H           1 FA4       0.0502
     55 H22        34.5003   11.8633   15.8764 H           1 FA4       0.0502
     56 H23        34.4579   10.7788   13.9251 H           1 FA4       0.1882
     57 H24        36.3509    8.5910   13.3804 H           1 FA4       0.0799
     58 H25        37.3004   10.6046   12.3984 H           1 FA4       0.0312
     59 H26        35.7451   11.0988   11.7613 H           1 FA4       0.0312
     60 H27        34.8742    6.8785   13.2450 H           1 FA4       0.2217
     61 H28        35.9711    8.7061   10.4605 H           1 FA4       0.0269
     62 H29        37.6851    8.9945   10.7404 H           1 FA4       0.0269
     63 H30        37.7032   10.9878    9.4134 H           1 FA4       0.0317
     64 H31        35.9420   11.1604    9.4613 H           1 FA4       0.0317
     65 H32        37.4124    8.9384    7.9653 H           1 FA4       0.0813
     66 H33        36.7604   10.4132    7.2310 H           1 FA4       0.0813
     67 H34        35.2842    8.5757    6.9828 H           1 FA4       0.1994
     68 H35        34.5835    9.7682    7.9134 H           1 FA4       0.1994
     69 H36        35.1595    8.3787    8.6260 H           1 FA4       0.1994
     70 H37        27.6088    9.1723   24.3520 H           1 FA4       0.0839
     71 H38        27.0381    8.4780   22.8493 H           1 FA4       0.0839
     72 H39        27.7239   10.3507   22.0517 H           1 FA4       0.2664
     73 H40        30.3787   12.1769   22.0296 H           1 FA4       0.2615
     74 H41        28.9046   11.9322   21.4139 H           1 FA4       0.2615
     75 H42        30.3439    9.6322   24.1129 H           1 FA4       0.2615
     76 H43        31.1910   10.8706   23.5243 H           1 FA4       0.2615
     77 H44        33.2135    5.8885   12.5947 H           1 FA4       0.2490
@<TRIPOS>BOND
     1     1     2  ar
     2     1     6  ar
     3     2     3  ar
     4     3     4  ar
     5     3     7   1
     6     4     5  ar
     7     4    27   1
     8     5     6  ar
     9     7     8   1
    10     8     9   1
    11     9    10   1
    12    10    11   1
    13    11    12   1
    14    12    13   1
    15    13    14   1
    16    14    15   1
    17    15    16   1
    18    16    17  am
    19    16    19   2
    20    17    18   1
    21    18    20   1
    22    18    21   1
    23    20    23   1
    24    21    22  am
    25    21    33   2
    26    22    32   1
    27    23    24   1
    28    24    25   1
    29    25    26   1
    30    27    28   1
    31    28    29  ar
    32    29    30  ar
    33    29    31  ar
    34     1    34   1
    35     2    35   1
    36     5    36   1
    37     6    37   1
    38     7    38   1
    39     7    39   1
    40     8    40   1
    41     8    41   1
    42     9    42   1
    43     9    43   1
    44    10    44   1
    45    10    45   1
    46    11    46   1
    47    11    47   1
    48    12    48   1
    49    12    49   1
    50    13    50   1
    51    13    51   1
    52    14    52   1
    53    14    53   1
    54    15    54   1
    55    15    55   1
    56    17    56   1
    57    18    57   1
    58    20    58   1
    59    20    59   1
    60    22    60   1
    61    23    61   1
    62    23    62   1
    63    24    63   1
    64    24    64   1
    65    25    65   1
    66    25    66   1
    67    26    67   1
    68    26    68   1
    69    26    69   1
    70    27    70   1
    71    27    71   1
    72    28    72   1
    73    30    73   1
    74    30    74   1
    75    31    75   1
    76    31    76   1
    77    32    77   1
@<TRIPOS>SUBSTRUCTURE
     1  FA4      1

