@<TRIPOS>MOLECULE
2d1o_ligand_050
    77    77
SMALL
GAST_HUCK
****
This file was generated by PARSER (from files_GN.cpp)

@<TRIPOS>ATOM
      1 C1         24.6734   13.8027   20.8872 C.ar        1 FA4      -0.0755
      2 C2         25.9904   13.3800   21.1164 C.ar        1 FA4      -0.0668
      3 C3         26.8370   12.9775   20.0506 C.ar        1 FA4      -0.0377
      4 C4         26.3256   13.0230   18.7154 C.ar        1 FA4      -0.0050
      5 C5         24.9895   13.4554   18.5062 C.ar        1 FA4      -0.0635
      6 C6         24.1726   13.8432   19.5797 C.ar        1 FA4      -0.0754
      7 C7         28.2109   12.5026   20.4194 C.3         1 FA4      -0.0215
      8 C8         28.2029   11.1110   21.1375 C.3         1 FA4      -0.0443
      9 C9         28.9747    9.9578   20.4223 C.3         1 FA4      -0.0514
     10 C10        30.4109    9.6881   20.9590 C.3         1 FA4      -0.0529
     11 C11        31.5054   10.7060   20.5431 C.3         1 FA4      -0.0530
     12 C12        32.1293   10.4278   19.1448 C.3         1 FA4      -0.0529
     13 C13        33.3021   11.3953   18.8132 C.3         1 FA4      -0.0510
     14 C14        34.1805   10.9844   17.5980 C.3         1 FA4      -0.0361
     15 C15        33.5443   11.1868   16.1916 C.3         1 FA4       0.0374
     16 C16        32.5813   10.1770   15.8129 C.2         1 FA4       0.1782
     17 N17        32.9826    8.9170   15.6476 N.am        1 FA4      -0.2657
     18 C18        32.2101    7.8201   15.1404 C.3         1 FA4       0.1325
     19 O19        31.4289   10.5170   15.5440 O.2         1 FA4      -0.3969
     20 C20        32.4885    6.5274   15.9725 C.3         1 FA4      -0.0123
     21 C21        32.4825    7.7240   13.7095 C.2         1 FA4       0.2244
     22 N22        33.5150    7.0607   13.2217 N.am        1 FA4      -0.1623
     23 C23        32.0131    5.1602   15.3884 C.3         1 FA4      -0.0440
     24 C24        30.6193    5.1637   14.6986 C.3         1 FA4      -0.0124
     25 C25        30.1833    3.7780   14.1451 C.3         1 FA4      -0.0354
     26 N26        31.2666    3.0911   13.4272 N.4         1 FA4       0.2185
     27 C27        27.1367   12.6436   17.5235 C.3         1 FA4       0.0939
     28 N28        28.0588   13.6565   17.2337 N.pl3       1 FA4      -0.2620
     29 C29        28.9245   13.6729   16.2883 C.cat       1 FA4       0.2900
     30 N30        29.6793   14.6948   16.1936 N.pl3       1 FA4      -0.2847
     31 N31        29.0737   12.7331   15.4331 N.pl3       1 FA4      -0.2847
     32 O32        33.6323    6.8588   11.9381 O.3         1 FA4      -0.2717
     33 O33        31.7212    8.2834   12.9352 O.2         1 FA4      -0.3944
     34 H1         24.0791   14.0860   21.6725 H           1 FA4       0.0541
     35 H2         26.3301   13.3581   22.0833 H           1 FA4       0.0537
     36 H3         24.5969   13.5038   17.5625 H           1 FA4       0.0538
     37 H4         23.2123   14.1566   19.4085 H           1 FA4       0.0541
     38 H5         28.6550   13.2487   21.0872 H           1 FA4       0.0411
     39 H6         28.8711   12.4711   19.5560 H           1 FA4       0.0411
     40 H7         27.1694   10.7737   21.2729 H           1 FA4       0.0286
     41 H8         28.5988   11.2396   22.1482 H           1 FA4       0.0286
     42 H9         29.0040   10.1144   19.3416 H           1 FA4       0.0267
     43 H10        28.4101    9.0339   20.5787 H           1 FA4       0.0267
     44 H11        30.7133    8.6902   20.6360 H           1 FA4       0.0265
     45 H12        30.3612    9.6578   22.0507 H           1 FA4       0.0265
     46 H13        32.3108   10.6529   21.2811 H           1 FA4       0.0265
     47 H14        31.1119   11.7253   20.5758 H           1 FA4       0.0265
     48 H15        31.3526   10.5244   18.3824 H           1 FA4       0.0265
     49 H16        32.5056    9.4012   19.1290 H           1 FA4       0.0265
     50 H17        33.9699   11.4366   19.6795 H           1 FA4       0.0267
     51 H18        32.9085   12.4045   18.6548 H           1 FA4       0.0267
     52 H19        34.5044    9.9450   17.7102 H           1 FA4       0.0290
     53 H20        35.0833   11.6023   17.6297 H           1 FA4       0.0290
     54 H21        34.3464   11.1771   15.4464 H           1 FA4       0.0502
     55 H22        33.0957   12.1834   16.1566 H           1 FA4       0.0502
     56 H23        33.9239    8.7325   15.8040 H           1 FA4       0.1882
     57 H24        31.1388    8.0216   15.2625 H           1 FA4       0.0799
     58 H25        32.0289    6.6523   16.9580 H           1 FA4       0.0312
     59 H26        33.5662    6.4464   16.1367 H           1 FA4       0.0312
     60 H27        34.1312    6.6148   13.8190 H           1 FA4       0.2217
     61 H28        32.0053    4.4268   16.2017 H           1 FA4       0.0269
     62 H29        32.7623    4.8245   14.6657 H           1 FA4       0.0269
     63 H30        30.6377    5.8586   13.8543 H           1 FA4       0.0317
     64 H31        29.8618    5.5053   15.4112 H           1 FA4       0.0317
     65 H32        29.3458    3.9170   13.4543 H           1 FA4       0.0813
     66 H33        29.8525    3.1322   14.9653 H           1 FA4       0.0813
     67 H34        30.8914    2.3299   12.8573 H           1 FA4       0.1994
     68 H35        31.9201    2.7048   14.1115 H           1 FA4       0.1994
     69 H36        31.7938    3.7388   12.8369 H           1 FA4       0.1994
     70 H37        26.5049   12.4958   16.6420 H           1 FA4       0.0839
     71 H38        27.6415   11.6925   17.7137 H           1 FA4       0.0839
     72 H39        28.0521   14.4028   17.8003 H           1 FA4       0.2664
     73 H40        30.3174   14.7473   15.5096 H           1 FA4       0.2615
     74 H41        29.5926   15.4001   16.8051 H           1 FA4       0.2615
     75 H42        28.5347   11.9708   15.4720 H           1 FA4       0.2615
     76 H43        29.7169   12.8101   14.7593 H           1 FA4       0.2615
     77 H44        34.0113    5.9565   11.8475 H           1 FA4       0.2490
@<TRIPOS>BOND
     1     1     2  ar
     2     1     6  ar
     3     2     3  ar
     4     3     4  ar
     5     3     7   1
     6     4     5  ar
     7     4    27   1
     8     5     6  ar
     9     7     8   1
    10     8     9   1
    11     9    10   1
    12    10    11   1
    13    11    12   1
    14    12    13   1
    15    13    14   1
    16    14    15   1
    17    15    16   1
    18    16    17  am
    19    16    19   2
    20    17    18   1
    21    18    20   1
    22    18    21   1
    23    20    23   1
    24    21    22  am
    25    21    33   2
    26    22    32   1
    27    23    24   1
    28    24    25   1
    29    25    26   1
    30    27    28   1
    31    28    29  ar
    32    29    30  ar
    33    29    31  ar
    34     1    34   1
    35     2    35   1
    36     5    36   1
    37     6    37   1
    38     7    38   1
    39     7    39   1
    40     8    40   1
    41     8    41   1
    42     9    42   1
    43     9    43   1
    44    10    44   1
    45    10    45   1
    46    11    46   1
    47    11    47   1
    48    12    48   1
    49    12    49   1
    50    13    50   1
    51    13    51   1
    52    14    52   1
    53    14    53   1
    54    15    54   1
    55    15    55   1
    56    17    56   1
    57    18    57   1
    58    20    58   1
    59    20    59   1
    60    22    60   1
    61    23    61   1
    62    23    62   1
    63    24    63   1
    64    24    64   1
    65    25    65   1
    66    25    66   1
    67    26    67   1
    68    26    68   1
    69    26    69   1
    70    27    70   1
    71    27    71   1
    72    28    72   1
    73    30    73   1
    74    30    74   1
    75    31    75   1
    76    31    76   1
    77    32    77   1
@<TRIPOS>SUBSTRUCTURE
     1  FA4      1

