@<TRIPOS>MOLECULE
2d1o_ligand_045
    77    77
SMALL
GAST_HUCK
****
This file was generated by PARSER (from files_GN.cpp)

@<TRIPOS>ATOM
      1 C1         24.6748    5.5495   13.0845 C.ar        1 FA4      -0.0755
      2 C2         24.3696    4.7830   14.2226 C.ar        1 FA4      -0.0668
      3 C3         25.3733    4.0296   14.8860 C.ar        1 FA4      -0.0377
      4 C4         26.7261    4.0866   14.4095 C.ar        1 FA4      -0.0050
      5 C5         26.9949    4.8552   13.2512 C.ar        1 FA4      -0.0635
      6 C6         25.9746    5.5541   12.5750 C.ar        1 FA4      -0.0754
      7 C7         24.9300    3.1077   15.9747 C.3         1 FA4      -0.0215
      8 C8         24.7308    1.6366   15.4617 C.3         1 FA4      -0.0443
      9 C9         23.2708    1.1522   15.2318 C.3         1 FA4      -0.0514
     10 C10        22.3274    2.0334   14.3630 C.3         1 FA4      -0.0529
     11 C11        22.7998    2.4019   12.9252 C.3         1 FA4      -0.0530
     12 C12        22.6125    1.3009   11.8341 C.3         1 FA4      -0.0529
     13 C13        22.1858    1.8941   10.4543 C.3         1 FA4      -0.0510
     14 C14        20.6441    1.8494   10.1818 C.3         1 FA4      -0.0361
     15 C15        20.0300    3.1820    9.6470 C.3         1 FA4       0.0374
     16 C16        18.8117    2.9786    8.8763 C.2         1 FA4       0.1782
     17 N17        17.6370    2.7669    9.4715 N.am        1 FA4      -0.2657
     18 C18        16.3994    2.4435    8.8103 C.3         1 FA4       0.1325
     19 O19        18.9138    2.9552    7.6543 O.2         1 FA4      -0.3969
     20 C20        15.9183    3.5941    7.8644 C.3         1 FA4      -0.0123
     21 C21        15.3912    2.0753    9.7989 C.2         1 FA4       0.2244
     22 N22        14.9117    2.9669   10.6540 N.am        1 FA4      -0.1623
     23 C23        14.4816    3.5034    7.2650 C.3         1 FA4      -0.0440
     24 C24        14.1311    2.2603    6.3957 C.3         1 FA4      -0.0124
     25 C25        15.2462    1.7431    5.4496 C.3         1 FA4      -0.0354
     26 N26        15.6796    2.7284    4.4508 N.4         1 FA4       0.2185
     27 C27        27.8747    3.4391   15.1382 C.3         1 FA4       0.0939
     28 N28        29.0034    3.0993   14.3732 N.pl3       1 FA4      -0.2620
     29 C29        30.0188    3.8188   14.0661 C.cat       1 FA4       0.2900
     30 N30        30.9450    3.2735   13.3717 N.pl3       1 FA4      -0.2847
     31 N31        30.1901    5.0444   14.3899 N.pl3       1 FA4      -0.2847
     32 O32        13.9708    2.6804   11.5143 O.3         1 FA4      -0.2717
     33 O33        14.9645    0.9294    9.8253 O.2         1 FA4      -0.3944
     34 H1         23.9413    6.0938   12.6186 H           1 FA4       0.0541
     35 H2         23.4020    4.7737   14.5498 H           1 FA4       0.0537
     36 H3         27.9368    4.9240   12.8698 H           1 FA4       0.0538
     37 H4         26.1935    6.0862   11.7307 H           1 FA4       0.0541
     38 H5         24.0100    3.4593   16.4505 H           1 FA4       0.0411
     39 H6         25.6773    3.1285   16.7685 H           1 FA4       0.0411
     40 H7         25.1655    0.9640   16.2107 H           1 FA4       0.0286
     41 H8         25.2975    1.4736   14.5388 H           1 FA4       0.0286
     42 H9         22.7971    1.0382   16.2141 H           1 FA4       0.0267
     43 H10        23.3106    0.1564   14.7776 H           1 FA4       0.0267
     44 H11        22.1419    2.9653   14.9071 H           1 FA4       0.0265
     45 H12        21.3652    1.5176   14.2853 H           1 FA4       0.0265
     46 H13        23.8512    2.7017   12.9424 H           1 FA4       0.0265
     47 H14        22.2245    3.2899   12.6304 H           1 FA4       0.0265
     48 H15        21.8765    0.5528   12.1504 H           1 FA4       0.0265
     49 H16        23.5670    0.7762   11.7083 H           1 FA4       0.0265
     50 H17        22.6920    1.3337    9.6587 H           1 FA4       0.0267
     51 H18        22.5601    2.9224   10.3826 H           1 FA4       0.0267
     52 H19        20.1085    1.5787   11.0958 H           1 FA4       0.0290
     53 H20        20.4675    1.0433    9.4589 H           1 FA4       0.0290
     54 H21        20.7685    3.6974    9.0190 H           1 FA4       0.0502
     55 H22        19.8211    3.8454   10.4946 H           1 FA4       0.0502
     56 H23        17.6308    2.7790   10.4465 H           1 FA4       0.1882
     57 H24        16.5984    1.5649    8.1873 H           1 FA4       0.0799
     58 H25        16.6052    3.6739    7.0225 H           1 FA4       0.0312
     59 H26        15.9875    4.5431    8.4091 H           1 FA4       0.0312
     60 H27        15.2410    3.8759   10.6201 H           1 FA4       0.2217
     61 H28        14.3154    4.3996    6.6592 H           1 FA4       0.0269
     62 H29        13.7599    3.5462    8.0876 H           1 FA4       0.0269
     63 H30        13.2553    2.5089    5.7886 H           1 FA4       0.0317
     64 H31        13.8362    1.4379    7.0551 H           1 FA4       0.0317
     65 H32        14.8830    0.8581    4.9210 H           1 FA4       0.0813
     66 H33        16.1158    1.4471    6.0388 H           1 FA4       0.0813
     67 H34        16.5465    2.3877    4.0257 H           1 FA4       0.1994
     68 H35        15.8632    3.6272    4.9065 H           1 FA4       0.1994
     69 H36        14.9573    2.8469    3.7355 H           1 FA4       0.1994
     70 H37        27.5446    2.4915   15.5598 H           1 FA4       0.0839
     71 H38        28.1466    4.0761   15.9858 H           1 FA4       0.0839
     72 H39        29.0243    2.2182   14.0540 H           1 FA4       0.2664
     73 H40        31.6961    3.7687   13.1130 H           1 FA4       0.2615
     74 H41        30.8643    2.3849   13.0991 H           1 FA4       0.2615
     75 H42        29.5450    5.5030   14.8865 H           1 FA4       0.2615
     76 H43        30.9588    5.4952   14.1073 H           1 FA4       0.2615
     77 H44        13.1419    2.9756   11.0789 H           1 FA4       0.2490
@<TRIPOS>BOND
     1     1     2  ar
     2     1     6  ar
     3     2     3  ar
     4     3     4  ar
     5     3     7   1
     6     4     5  ar
     7     4    27   1
     8     5     6  ar
     9     7     8   1
    10     8     9   1
    11     9    10   1
    12    10    11   1
    13    11    12   1
    14    12    13   1
    15    13    14   1
    16    14    15   1
    17    15    16   1
    18    16    17  am
    19    16    19   2
    20    17    18   1
    21    18    20   1
    22    18    21   1
    23    20    23   1
    24    21    22  am
    25    21    33   2
    26    22    32   1
    27    23    24   1
    28    24    25   1
    29    25    26   1
    30    27    28   1
    31    28    29  ar
    32    29    30  ar
    33    29    31  ar
    34     1    34   1
    35     2    35   1
    36     5    36   1
    37     6    37   1
    38     7    38   1
    39     7    39   1
    40     8    40   1
    41     8    41   1
    42     9    42   1
    43     9    43   1
    44    10    44   1
    45    10    45   1
    46    11    46   1
    47    11    47   1
    48    12    48   1
    49    12    49   1
    50    13    50   1
    51    13    51   1
    52    14    52   1
    53    14    53   1
    54    15    54   1
    55    15    55   1
    56    17    56   1
    57    18    57   1
    58    20    58   1
    59    20    59   1
    60    22    60   1
    61    23    61   1
    62    23    62   1
    63    24    63   1
    64    24    64   1
    65    25    65   1
    66    25    66   1
    67    26    67   1
    68    26    68   1
    69    26    69   1
    70    27    70   1
    71    27    71   1
    72    28    72   1
    73    30    73   1
    74    30    74   1
    75    31    75   1
    76    31    76   1
    77    32    77   1
@<TRIPOS>SUBSTRUCTURE
     1  FA4      1

