@<TRIPOS>MOLECULE
2d1o_ligand_014
    77    77
SMALL
GAST_HUCK
****
This file was generated by PARSER (from files_GN.cpp)

@<TRIPOS>ATOM
      1 C1         20.8223    2.8897   10.7083 C.ar        1 FA4      -0.0755
      2 C2         22.1299    3.1515   11.1400 C.ar        1 FA4      -0.0668
      3 C3         22.3951    4.1077   12.1514 C.ar        1 FA4      -0.0377
      4 C4         21.3005    4.8022   12.7535 C.ar        1 FA4      -0.0050
      5 C5         19.9868    4.5194   12.2990 C.ar        1 FA4      -0.0635
      6 C6         19.7473    3.5698   11.2942 C.ar        1 FA4      -0.0754
      7 C7         23.8216    4.2850   12.5587 C.3         1 FA4      -0.0215
      8 C8         24.2869    3.1255   13.4784 C.3         1 FA4      -0.0443
      9 C9         25.8042    3.1509   13.8213 C.3         1 FA4      -0.0514
     10 C10        26.1101    2.4401   15.1751 C.3         1 FA4      -0.0529
     11 C11        27.5935    2.0181   15.3588 C.3         1 FA4      -0.0530
     12 C12        28.4996    3.0568   16.0951 C.3         1 FA4      -0.0529
     13 C13        29.7934    3.3773   15.2862 C.3         1 FA4      -0.0510
     14 C14        30.9745    3.8854   16.1705 C.3         1 FA4      -0.0361
     15 C15        32.2632    4.2244   15.3464 C.3         1 FA4       0.0374
     16 C16        32.7377    5.5917   15.4887 C.2         1 FA4       0.1782
     17 N17        33.1671    6.2590   14.4267 N.am        1 FA4      -0.2657
     18 C18        33.8505    7.5266   14.4062 C.3         1 FA4       0.1325
     19 O19        32.8599    6.0392   16.6233 O.2         1 FA4      -0.3969
     20 C20        33.0190    8.7341   14.9466 C.3         1 FA4      -0.0123
     21 C21        34.3725    7.7558   13.0613 C.2         1 FA4       0.2244
     22 N22        35.6638    7.9268   12.8467 N.am        1 FA4      -0.1623
     23 C23        31.6618    9.0765   14.2469 C.3         1 FA4      -0.0440
     24 C24        30.3795    8.4805   14.9226 C.3         1 FA4      -0.0124
     25 C25        29.5293    7.5835   13.9835 C.3         1 FA4      -0.0354
     26 N26        30.1255    6.2495   13.8593 N.4         1 FA4       0.2185
     27 C27        21.4645    5.8270   13.8333 C.3         1 FA4       0.0939
     28 N28        22.1094    5.3712   14.9883 N.pl3       1 FA4      -0.2620
     29 C29        21.7628    4.4180   15.7718 C.cat       1 FA4       0.2900
     30 N30        22.5208    4.1672   16.7670 N.pl3       1 FA4      -0.2847
     31 N31        20.7262    3.6801   15.6338 N.pl3       1 FA4      -0.2847
     32 O32        36.1893    8.0634   11.6628 O.3         1 FA4      -0.2717
     33 O33        33.6001    7.7329   12.1132 O.2         1 FA4      -0.3944
     34 H1         20.6504    2.1960    9.9761 H           1 FA4       0.0541
     35 H2         22.8933    2.6301   10.7024 H           1 FA4       0.0537
     36 H3         19.1783    4.9953   12.7107 H           1 FA4       0.0538
     37 H4         18.7890    3.3757   10.9886 H           1 FA4       0.0541
     38 H5         23.9807    5.2286   13.0814 H           1 FA4       0.0411
     39 H6         24.4618    4.3182   11.6710 H           1 FA4       0.0411
     40 H7         24.0696    2.1633   12.9974 H           1 FA4       0.0286
     41 H8         23.7255    3.1574   14.4151 H           1 FA4       0.0286
     42 H9         26.1560    4.1898   13.8871 H           1 FA4       0.0267
     43 H10        26.3497    2.6610   13.0059 H           1 FA4       0.0267
     44 H11        25.5126    1.5231   15.2453 H           1 FA4       0.0265
     45 H12        25.8095    3.0940   16.0009 H           1 FA4       0.0265
     46 H13        28.0010    1.7767   14.3711 H           1 FA4       0.0265
     47 H14        27.6175    1.0885   15.9371 H           1 FA4       0.0265
     48 H15        28.7713    2.6512   17.0796 H           1 FA4       0.0265
     49 H16        27.9655    4.0016   16.2635 H           1 FA4       0.0265
     50 H17        29.5387    4.1458   14.5382 H           1 FA4       0.0267
     51 H18        30.1275    2.4737   14.7546 H           1 FA4       0.0267
     52 H19        31.2254    3.0881   16.8828 H           1 FA4       0.0290
     53 H20        30.6357    4.7469   16.7622 H           1 FA4       0.0290
     54 H21        32.0878    3.9983   14.2879 H           1 FA4       0.0502
     55 H22        33.0701    3.5504   15.6657 H           1 FA4       0.0502
     56 H23        33.1100    5.7801   13.5853 H           1 FA4       0.1882
     57 H24        34.6965    7.4380   15.0916 H           1 FA4       0.0799
     58 H25        33.6609    9.6229   14.8717 H           1 FA4       0.0312
     59 H26        32.8374    8.5980   16.0230 H           1 FA4       0.0312
     60 H27        36.2631    7.9318   13.6097 H           1 FA4       0.2217
     61 H28        31.7004    8.7929   13.1908 H           1 FA4       0.0269
     62 H29        31.5475   10.1727   14.2706 H           1 FA4       0.0269
     63 H30        29.7422    9.3035   15.2589 H           1 FA4       0.0317
     64 H31        30.6391    7.8959   15.8149 H           1 FA4       0.0317
     65 H32        29.4397    8.0169   12.9801 H           1 FA4       0.0813
     66 H33        28.5268    7.4564   14.4095 H           1 FA4       0.0813
     67 H34        29.4869    5.6476   13.3224 H           1 FA4       0.1994
     68 H35        30.2549    5.8763   14.8063 H           1 FA4       0.1994
     69 H36        31.0384    6.3286   13.3853 H           1 FA4       0.1994
     70 H37        20.5077    6.2585   14.1397 H           1 FA4       0.0839
     71 H38        22.0496    6.6542   13.4246 H           1 FA4       0.0839
     72 H39        22.8993    5.8178   15.2182 H           1 FA4       0.2664
     73 H40        22.3035    3.4669   17.3492 H           1 FA4       0.2615
     74 H41        23.2929    4.6785   16.9072 H           1 FA4       0.2615
     75 H42        20.1386    3.8153   14.9212 H           1 FA4       0.2615
     76 H43        20.5672    2.9941   16.2509 H           1 FA4       0.2615
     77 H44        35.4897    8.4190   11.0722 H           1 FA4       0.2490
@<TRIPOS>BOND
     1     1     2  ar
     2     1     6  ar
     3     2     3  ar
     4     3     4  ar
     5     3     7   1
     6     4     5  ar
     7     4    27   1
     8     5     6  ar
     9     7     8   1
    10     8     9   1
    11     9    10   1
    12    10    11   1
    13    11    12   1
    14    12    13   1
    15    13    14   1
    16    14    15   1
    17    15    16   1
    18    16    17  am
    19    16    19   2
    20    17    18   1
    21    18    20   1
    22    18    21   1
    23    20    23   1
    24    21    22  am
    25    21    33   2
    26    22    32   1
    27    23    24   1
    28    24    25   1
    29    25    26   1
    30    27    28   1
    31    28    29  ar
    32    29    30  ar
    33    29    31  ar
    34     1    34   1
    35     2    35   1
    36     5    36   1
    37     6    37   1
    38     7    38   1
    39     7    39   1
    40     8    40   1
    41     8    41   1
    42     9    42   1
    43     9    43   1
    44    10    44   1
    45    10    45   1
    46    11    46   1
    47    11    47   1
    48    12    48   1
    49    12    49   1
    50    13    50   1
    51    13    51   1
    52    14    52   1
    53    14    53   1
    54    15    54   1
    55    15    55   1
    56    17    56   1
    57    18    57   1
    58    20    58   1
    59    20    59   1
    60    22    60   1
    61    23    61   1
    62    23    62   1
    63    24    63   1
    64    24    64   1
    65    25    65   1
    66    25    66   1
    67    26    67   1
    68    26    68   1
    69    26    69   1
    70    27    70   1
    71    27    71   1
    72    28    72   1
    73    30    73   1
    74    30    74   1
    75    31    75   1
    76    31    76   1
    77    32    77   1
@<TRIPOS>SUBSTRUCTURE
     1  FA4      1

