@<TRIPOS>MOLECULE
2d1o_ligand_077
    77    77
SMALL
GAST_HUCK
****
This file was generated by PARSER (from files_GN.cpp)

@<TRIPOS>ATOM
      1 C1         20.4728    4.1944   10.9570 C.ar        1 FA4      -0.0755
      2 C2         21.7377    4.6610   11.3516 C.ar        1 FA4      -0.0668
      3 C3         21.9070    5.4395   12.5244 C.ar        1 FA4      -0.0377
      4 C4         20.7648    5.7090   13.3434 C.ar        1 FA4      -0.0050
      5 C5         19.4934    5.2439   12.9173 C.ar        1 FA4      -0.0635
      6 C6         19.3467    4.4984   11.7351 C.ar        1 FA4      -0.0754
      7 C7         23.2651    6.0201   12.7690 C.3         1 FA4      -0.0215
      8 C8         24.2548    5.1443   13.5808 C.3         1 FA4      -0.0443
      9 C9         24.9133    3.9419   12.8387 C.3         1 FA4      -0.0514
     10 C10        26.4257    3.6864   13.1223 C.3         1 FA4      -0.0529
     11 C11        26.9924    4.2092   14.4810 C.3         1 FA4      -0.0530
     12 C12        27.7674    5.5647   14.3905 C.3         1 FA4      -0.0529
     13 C13        29.2665    5.4592   13.9974 C.3         1 FA4      -0.0510
     14 C14        30.2346    5.5745   15.2079 C.3         1 FA4      -0.0361
     15 C15        31.7404    5.6377   14.8026 C.3         1 FA4       0.0374
     16 C16        32.4891    6.6518   15.5163 C.2         1 FA4       0.1782
     17 N17        32.1909    7.9333   15.3375 N.am        1 FA4      -0.2657
     18 C18        32.8431    9.0584   15.9499 C.3         1 FA4       0.1325
     19 O19        33.3633    6.3096   16.3054 O.2         1 FA4      -0.3969
     20 C20        32.1883    9.3851   17.3362 C.3         1 FA4      -0.0123
     21 C21        32.8212   10.1525   14.9881 C.2         1 FA4       0.2244
     22 N22        33.9064   10.4373   14.2834 N.am        1 FA4      -0.1623
     23 C23        33.1017   10.1704   18.3259 C.3         1 FA4      -0.0440
     24 C24        32.7444   11.6712   18.5114 C.3         1 FA4      -0.0124
     25 C25        33.7079   12.4274   19.4633 C.3         1 FA4      -0.0354
     26 N26        33.8714   11.7571   20.7643 N.4         1 FA4       0.2185
     27 C27        20.8433    6.4367   14.6515 C.3         1 FA4       0.0939
     28 N28        21.6917    5.7966   15.5613 N.pl3       1 FA4      -0.2620
     29 C29        21.4908    4.6889   16.1762 C.cat       1 FA4       0.2900
     30 N30        22.4150    4.2669   16.9479 N.pl3       1 FA4      -0.2847
     31 N31        20.4427    3.9644   16.0827 N.pl3       1 FA4      -0.2847
     32 O32        33.9180   11.3815   13.3822 O.3         1 FA4      -0.2717
     33 O33        31.7669   10.7341   14.7538 O.2         1 FA4      -0.3944
     34 H1         20.3679    3.6599   10.0898 H           1 FA4       0.0541
     35 H2         22.5321    4.4489   10.7448 H           1 FA4       0.0537
     36 H3         18.6555    5.4367   13.4678 H           1 FA4       0.0538
     37 H4         18.4204    4.1809   11.4368 H           1 FA4       0.0541
     38 H5         23.1596    6.9789   13.2831 H           1 FA4       0.0411
     39 H6         23.7418    6.2737   11.8157 H           1 FA4       0.0411
     40 H7         23.7678    4.7819   14.4864 H           1 FA4       0.0286
     41 H8         25.0227    5.8348   13.9057 H           1 FA4       0.0286
     42 H9         24.8093    4.0756   11.7600 H           1 FA4       0.0267
     43 H10        24.3567    3.0393   13.1051 H           1 FA4       0.0267
     44 H11        27.0059    4.1174   12.3012 H           1 FA4       0.0265
     45 H12        26.5821    2.6015   13.0721 H           1 FA4       0.0265
     46 H13        27.6626    3.4507   14.9065 H           1 FA4       0.0265
     47 H14        26.1656    4.3255   15.1883 H           1 FA4       0.0265
     48 H15        27.6710    6.0891   15.3429 H           1 FA4       0.0265
     49 H16        27.3057    6.2020   13.6451 H           1 FA4       0.0265
     50 H17        29.5105    6.2657   13.2978 H           1 FA4       0.0267
     51 H18        29.4512    4.5148   13.4796 H           1 FA4       0.0267
     52 H19        30.0726    4.7161   15.8651 H           1 FA4       0.0290
     53 H20        29.9539    6.4631   15.7835 H           1 FA4       0.0290
     54 H21        31.8503    5.8424   13.7373 H           1 FA4       0.0502
     55 H22        32.1865    4.6548   14.9709 H           1 FA4       0.0502
     56 H23        31.4450    8.1311   14.7548 H           1 FA4       0.1882
     57 H24        33.8935    8.7932   16.1407 H           1 FA4       0.0799
     58 H25        31.9472    8.4358   17.8248 H           1 FA4       0.0312
     59 H26        31.2451    9.9213   17.2006 H           1 FA4       0.0312
     60 H27        34.7132    9.9129   14.4363 H           1 FA4       0.2217
     61 H28        34.1456   10.0765   18.0038 H           1 FA4       0.0269
     62 H29        33.0276    9.6992   19.3121 H           1 FA4       0.0269
     63 H30        31.7233   11.7463   18.9045 H           1 FA4       0.0317
     64 H31        32.7663   12.1828   17.5453 H           1 FA4       0.0317
     65 H32        33.3153   13.4324   19.6406 H           1 FA4       0.0813
     66 H33        34.6900   12.5183   18.9923 H           1 FA4       0.0813
     67 H34        34.4924   12.3152   21.3551 H           1 FA4       0.1994
     68 H35        34.2844   10.8282   20.6202 H           1 FA4       0.1994
     69 H36        32.9568   11.6579   21.2200 H           1 FA4       0.1994
     70 H37        19.8598    6.5595   15.1188 H           1 FA4       0.0839
     71 H38        21.2146    7.4474   14.4867 H           1 FA4       0.0839
     72 H39        22.5013    6.2287   15.7516 H           1 FA4       0.2664
     73 H40        22.3097    3.4576   17.3987 H           1 FA4       0.2615
     74 H41        23.2075    4.7513   17.0403 H           1 FA4       0.2615
     75 H42        19.7372    4.2231   15.5288 H           1 FA4       0.2615
     76 H43        20.3982    3.1570   16.5575 H           1 FA4       0.2615
     77 H44        34.0473   10.9129   12.5279 H           1 FA4       0.2490
@<TRIPOS>BOND
     1     1     2  ar
     2     1     6  ar
     3     2     3  ar
     4     3     4  ar
     5     3     7   1
     6     4     5  ar
     7     4    27   1
     8     5     6  ar
     9     7     8   1
    10     8     9   1
    11     9    10   1
    12    10    11   1
    13    11    12   1
    14    12    13   1
    15    13    14   1
    16    14    15   1
    17    15    16   1
    18    16    17  am
    19    16    19   2
    20    17    18   1
    21    18    20   1
    22    18    21   1
    23    20    23   1
    24    21    22  am
    25    21    33   2
    26    22    32   1
    27    23    24   1
    28    24    25   1
    29    25    26   1
    30    27    28   1
    31    28    29  ar
    32    29    30  ar
    33    29    31  ar
    34     1    34   1
    35     2    35   1
    36     5    36   1
    37     6    37   1
    38     7    38   1
    39     7    39   1
    40     8    40   1
    41     8    41   1
    42     9    42   1
    43     9    43   1
    44    10    44   1
    45    10    45   1
    46    11    46   1
    47    11    47   1
    48    12    48   1
    49    12    49   1
    50    13    50   1
    51    13    51   1
    52    14    52   1
    53    14    53   1
    54    15    54   1
    55    15    55   1
    56    17    56   1
    57    18    57   1
    58    20    58   1
    59    20    59   1
    60    22    60   1
    61    23    61   1
    62    23    62   1
    63    24    63   1
    64    24    64   1
    65    25    65   1
    66    25    66   1
    67    26    67   1
    68    26    68   1
    69    26    69   1
    70    27    70   1
    71    27    71   1
    72    28    72   1
    73    30    73   1
    74    30    74   1
    75    31    75   1
    76    31    76   1
    77    32    77   1
@<TRIPOS>SUBSTRUCTURE
     1  FA4      1

