@<TRIPOS>MOLECULE
2d1o_ligand_053
    77    77
SMALL
GAST_HUCK
****
This file was generated by PARSER (from files_GN.cpp)

@<TRIPOS>ATOM
      1 C1         38.5313   14.8842   24.3524 C.ar        1 FA4      -0.0755
      2 C2         37.3752   14.2156   23.9169 C.ar        1 FA4      -0.0668
      3 C3         37.3078   13.6038   22.6339 C.ar        1 FA4      -0.0377
      4 C4         38.4567   13.6955   21.7757 C.ar        1 FA4      -0.0050
      5 C5         39.6054   14.3925   22.2329 C.ar        1 FA4      -0.0635
      6 C6         39.6413   14.9862   23.5057 C.ar        1 FA4      -0.0754
      7 C7         36.0375   12.8917   22.2874 C.3         1 FA4      -0.0215
      8 C8         34.8742   13.8303   21.8397 C.3         1 FA4      -0.0443
      9 C9         33.4758   13.2219   22.1650 C.3         1 FA4      -0.0514
     10 C10        32.3365   13.6689   21.1930 C.3         1 FA4      -0.0529
     11 C11        32.1413   12.7044   19.9888 C.3         1 FA4      -0.0530
     12 C12        31.4624   11.3544   20.3862 C.3         1 FA4      -0.0529
     13 C13        31.7774   10.1511   19.4544 C.3         1 FA4      -0.0510
     14 C14        31.4248   10.3717   17.9526 C.3         1 FA4      -0.0361
     15 C15        31.3377    9.0444   17.1400 C.3         1 FA4       0.0374
     16 C16        32.5914    8.6178   16.5492 C.2         1 FA4       0.1782
     17 N17        33.0547    9.2330   15.4630 N.am        1 FA4      -0.2657
     18 C18        34.1277    8.8097   14.6103 C.3         1 FA4       0.1325
     19 O19        33.1354    7.6145   17.0102 O.2         1 FA4      -0.3969
     20 C20        35.0902    9.9819   14.2428 C.3         1 FA4      -0.0123
     21 C21        33.5498    8.2336   13.4057 C.2         1 FA4       0.2244
     22 N22        34.1079    7.1876   12.8114 N.am        1 FA4      -0.1623
     23 C23        35.6821   10.8189   15.4196 C.3         1 FA4      -0.0440
     24 C24        34.8345   12.0739   15.7885 C.3         1 FA4      -0.0124
     25 C25        35.3242   12.8004   17.0691 C.3         1 FA4      -0.0354
     26 N26        36.5097   13.6359   16.8198 N.4         1 FA4       0.2185
     27 C27        38.5024   13.1239   20.3986 C.3         1 FA4       0.0939
     28 N28        38.8486   11.7702   20.4360 N.pl3       1 FA4      -0.2620
     29 C29        39.8951   11.1829   19.9855 C.cat       1 FA4       0.2900
     30 N30        39.9214    9.9051   20.0953 N.pl3       1 FA4      -0.2847
     31 N31        40.9077   11.7440   19.4411 N.pl3       1 FA4      -0.2847
     32 O32        33.6013    6.6799   11.7281 O.3         1 FA4      -0.2717
     33 O33        32.5506    8.7513   12.9176 O.2         1 FA4      -0.3944
     34 H1         38.5594   15.3140   25.2840 H           1 FA4       0.0541
     35 H2         36.5848   14.1394   24.5675 H           1 FA4       0.0537
     36 H3         40.4440   14.4530   21.6523 H           1 FA4       0.0538
     37 H4         40.4842   15.4850   23.8164 H           1 FA4       0.0541
     38 H5         35.7269   12.3086   23.1660 H           1 FA4       0.0411
     39 H6         36.1935   12.1626   21.4958 H           1 FA4       0.0411
     40 H7         34.9666   14.0039   20.7542 H           1 FA4       0.0286
     41 H8         34.9621   14.7957   22.3540 H           1 FA4       0.0286
     42 H9         33.2044   13.5266   23.1854 H           1 FA4       0.0267
     43 H10        33.5621   12.1288   22.1618 H           1 FA4       0.0267
     44 H11        32.5415   14.6800   20.8225 H           1 FA4       0.0265
     45 H12        31.3947   13.7218   21.7490 H           1 FA4       0.0265
     46 H13        33.1133   12.5240   19.5195 H           1 FA4       0.0265
     47 H14        31.5086   13.1984   19.2404 H           1 FA4       0.0265
     48 H15        30.3789   11.5025   20.4396 H           1 FA4       0.0265
     49 H16        31.7857   11.0628   21.3907 H           1 FA4       0.0265
     50 H17        31.1979    9.2963   19.8282 H           1 FA4       0.0267
     51 H18        32.8456    9.9021   19.5496 H           1 FA4       0.0267
     52 H19        32.1790   11.0315   17.4986 H           1 FA4       0.0290
     53 H20        30.4445   10.8693   17.8899 H           1 FA4       0.0290
     54 H21        30.5998    9.1852   16.3433 H           1 FA4       0.0502
     55 H22        30.9428    8.2550   17.7997 H           1 FA4       0.0502
     56 H23        32.5337    9.9970   15.1718 H           1 FA4       0.1882
     57 H24        34.7327    8.0568   15.1258 H           1 FA4       0.0799
     58 H25        34.6004   10.6584   13.5400 H           1 FA4       0.0312
     59 H26        35.9327    9.5304   13.7148 H           1 FA4       0.0312
     60 H27        34.9094    6.8111   13.2243 H           1 FA4       0.2217
     61 H28        36.6818   11.1525   15.1085 H           1 FA4       0.0269
     62 H29        35.7992   10.1836   16.3049 H           1 FA4       0.0269
     63 H30        33.7929   11.7746   15.9588 H           1 FA4       0.0317
     64 H31        34.8606   12.7917   14.9572 H           1 FA4       0.0317
     65 H32        35.5578   12.0716   17.8546 H           1 FA4       0.0813
     66 H33        34.5251   13.4559   17.4349 H           1 FA4       0.0813
     67 H34        36.7749   14.1270   17.6788 H           1 FA4       0.1994
     68 H35        36.2955   14.3230   16.0900 H           1 FA4       0.1994
     69 H36        37.2914   13.0479   16.5140 H           1 FA4       0.1994
     70 H37        39.1807   13.6866   19.7438 H           1 FA4       0.0839
     71 H38        37.5090   13.2140   19.9461 H           1 FA4       0.0839
     72 H39        38.2146   11.2026   20.8176 H           1 FA4       0.2664
     73 H40        40.6580    9.4219   19.7899 H           1 FA4       0.2615
     74 H41        39.2055    9.4537   20.4860 H           1 FA4       0.2615
     75 H42        40.9432   12.6719   19.3458 H           1 FA4       0.2615
     76 H43        41.6257   11.2155   19.1539 H           1 FA4       0.2615
     77 H44        33.9057    5.7512   11.7536 H           1 FA4       0.2490
@<TRIPOS>BOND
     1     1     2  ar
     2     1     6  ar
     3     2     3  ar
     4     3     4  ar
     5     3     7   1
     6     4     5  ar
     7     4    27   1
     8     5     6  ar
     9     7     8   1
    10     8     9   1
    11     9    10   1
    12    10    11   1
    13    11    12   1
    14    12    13   1
    15    13    14   1
    16    14    15   1
    17    15    16   1
    18    16    17  am
    19    16    19   2
    20    17    18   1
    21    18    20   1
    22    18    21   1
    23    20    23   1
    24    21    22  am
    25    21    33   2
    26    22    32   1
    27    23    24   1
    28    24    25   1
    29    25    26   1
    30    27    28   1
    31    28    29  ar
    32    29    30  ar
    33    29    31  ar
    34     1    34   1
    35     2    35   1
    36     5    36   1
    37     6    37   1
    38     7    38   1
    39     7    39   1
    40     8    40   1
    41     8    41   1
    42     9    42   1
    43     9    43   1
    44    10    44   1
    45    10    45   1
    46    11    46   1
    47    11    47   1
    48    12    48   1
    49    12    49   1
    50    13    50   1
    51    13    51   1
    52    14    52   1
    53    14    53   1
    54    15    54   1
    55    15    55   1
    56    17    56   1
    57    18    57   1
    58    20    58   1
    59    20    59   1
    60    22    60   1
    61    23    61   1
    62    23    62   1
    63    24    63   1
    64    24    64   1
    65    25    65   1
    66    25    66   1
    67    26    67   1
    68    26    68   1
    69    26    69   1
    70    27    70   1
    71    27    71   1
    72    28    72   1
    73    30    73   1
    74    30    74   1
    75    31    75   1
    76    31    76   1
    77    32    77   1
@<TRIPOS>SUBSTRUCTURE
     1  FA4      1

