@<TRIPOS>MOLECULE
2d1o_ligand_021
    77    77
SMALL
GAST_HUCK
****
This file was generated by PARSER (from files_GN.cpp)

@<TRIPOS>ATOM
      1 C1         19.0545    3.0944   16.0604 C.ar        1 FA4      -0.0755
      2 C2         19.7741    3.0087   14.8580 C.ar        1 FA4      -0.0668
      3 C3         20.0148    4.1512   14.0506 C.ar        1 FA4      -0.0377
      4 C4         19.4762    5.4148   14.4642 C.ar        1 FA4      -0.0050
      5 C5         18.7700    5.4775   15.6935 C.ar        1 FA4      -0.0635
      6 C6         18.5552    4.3369   16.4806 C.ar        1 FA4      -0.0754
      7 C7         20.8340    3.9611   12.8126 C.3         1 FA4      -0.0215
      8 C8         22.3579    4.2108   13.0233 C.3         1 FA4      -0.0443
      9 C9         23.2175    2.9171   13.1134 C.3         1 FA4      -0.0514
     10 C10        24.7445    3.1536   13.3342 C.3         1 FA4      -0.0529
     11 C11        25.0945    4.2195   14.4197 C.3         1 FA4      -0.0530
     12 C12        26.4083    3.9359   15.1980 C.3         1 FA4      -0.0529
     13 C13        27.6527    3.6394   14.3156 C.3         1 FA4      -0.0510
     14 C14        28.7961    2.8855   15.0646 C.3         1 FA4      -0.0361
     15 C15        29.4389    3.5674   16.3093 C.3         1 FA4       0.0374
     16 C16        30.0163    4.8709   16.0444 C.2         1 FA4       0.1782
     17 N17        31.3374    5.0450   16.1212 N.am        1 FA4      -0.2657
     18 C18        32.1104    6.2300   15.8320 C.3         1 FA4       0.1325
     19 O19        29.2562    5.7924   15.7720 O.2         1 FA4      -0.3969
     20 C20        31.7576    7.4210   16.7798 C.3         1 FA4      -0.0123
     21 C21        32.0339    6.5648   14.4061 C.2         1 FA4       0.2244
     22 N22        33.1331    6.6593   13.6757 N.am        1 FA4      -0.1623
     23 C23        32.5933    8.7198   16.5588 C.3         1 FA4      -0.0440
     24 C24        31.8408   10.0382   16.9002 C.3         1 FA4      -0.0124
     25 C25        30.4397   10.1397   16.2327 C.3         1 FA4      -0.0354
     26 N26        30.0067   11.5134   15.9720 N.4         1 FA4       0.2185
     27 C27        19.5145    6.6599   13.6284 C.3         1 FA4       0.0939
     28 N28        20.6955    6.9024   12.9290 N.pl3       1 FA4      -0.2620
     29 C29        21.8752    7.1253   13.3850 C.cat       1 FA4       0.2900
     30 N30        22.7915    7.3297   12.5195 N.pl3       1 FA4      -0.2847
     31 N31        22.1904    7.1335   14.6293 N.pl3       1 FA4      -0.2847
     32 O32        33.1076    6.9141   12.3962 O.3         1 FA4      -0.2717
     33 O33        30.9440    6.7843   13.8866 O.2         1 FA4      -0.3944
     34 H1         18.8860    2.2542   16.6262 H           1 FA4       0.0541
     35 H2         20.1210    2.0862   14.5763 H           1 FA4       0.0537
     36 H3         18.3815    6.3625   16.0259 H           1 FA4       0.0538
     37 H4         18.0277    4.4041   17.3559 H           1 FA4       0.0541
     38 H5         20.4751    4.6362   12.0341 H           1 FA4       0.0411
     39 H6         20.6801    2.9454   12.4132 H           1 FA4       0.0411
     40 H7         22.5019    4.7942   13.9376 H           1 FA4       0.0286
     41 H8         22.7246    4.8099   12.1792 H           1 FA4       0.0286
     42 H9         23.0966    2.3555   12.1777 H           1 FA4       0.0267
     43 H10        22.8542    2.2895   13.9371 H           1 FA4       0.0267
     44 H11        25.2067    3.4422   12.3838 H           1 FA4       0.0265
     45 H12        25.1692    2.1862   13.6328 H           1 FA4       0.0265
     46 H13        24.2824    4.2516   15.1560 H           1 FA4       0.0265
     47 H14        25.1538    5.2148   13.9525 H           1 FA4       0.0265
     48 H15        26.2311    3.0958   15.8828 H           1 FA4       0.0265
     49 H16        26.6272    4.8191   15.8139 H           1 FA4       0.0265
     50 H17        28.0341    4.5758   13.8993 H           1 FA4       0.0267
     51 H18        27.3452    3.0101   13.4757 H           1 FA4       0.0267
     52 H19        29.5934    2.6780   14.3402 H           1 FA4       0.0290
     53 H20        28.3944    1.9201   15.3832 H           1 FA4       0.0290
     54 H21        30.2138    2.8909   16.6874 H           1 FA4       0.0502
     55 H22        28.6897    3.6584   17.1059 H           1 FA4       0.0502
     56 H23        31.8595    4.2699   16.3790 H           1 FA4       0.1882
     57 H24        33.1456    5.9555   16.0697 H           1 FA4       0.0799
     58 H25        31.8977    7.0972   17.8174 H           1 FA4       0.0312
     59 H26        30.6984    7.6502   16.6599 H           1 FA4       0.0312
     60 H27        33.9968    6.5006   14.0907 H           1 FA4       0.2217
     61 H28        32.9145    8.8008   15.5161 H           1 FA4       0.0269
     62 H29        33.5017    8.6636   17.1661 H           1 FA4       0.0269
     63 H30        32.4591   10.8776   16.5607 H           1 FA4       0.0317
     64 H31        31.7323   10.1217   17.9869 H           1 FA4       0.0317
     65 H32        29.6902    9.6867   16.8844 H           1 FA4       0.0813
     66 H33        30.4313    9.6083   15.2788 H           1 FA4       0.0813
     67 H34        29.0091   11.4910   15.7435 H           1 FA4       0.1994
     68 H35        30.5297   11.8964   15.1774 H           1 FA4       0.1994
     69 H36        30.1540   12.1010   16.7959 H           1 FA4       0.1994
     70 H37        19.2822    7.5620   14.2162 H           1 FA4       0.0839
     71 H38        18.7191    6.5746   12.8774 H           1 FA4       0.0839
     72 H39        20.6150    6.9460   12.0014 H           1 FA4       0.2664
     73 H40        23.6733    7.4751   12.7736 H           1 FA4       0.2615
     74 H41        22.5744    7.3137   11.6118 H           1 FA4       0.2615
     75 H42        21.5321    6.9938   15.2725 H           1 FA4       0.2615
     76 H43        23.0801    7.2462   14.8915 H           1 FA4       0.2615
     77 H44        33.3550    6.0547   11.9936 H           1 FA4       0.2490
@<TRIPOS>BOND
     1     1     2  ar
     2     1     6  ar
     3     2     3  ar
     4     3     4  ar
     5     3     7   1
     6     4     5  ar
     7     4    27   1
     8     5     6  ar
     9     7     8   1
    10     8     9   1
    11     9    10   1
    12    10    11   1
    13    11    12   1
    14    12    13   1
    15    13    14   1
    16    14    15   1
    17    15    16   1
    18    16    17  am
    19    16    19   2
    20    17    18   1
    21    18    20   1
    22    18    21   1
    23    20    23   1
    24    21    22  am
    25    21    33   2
    26    22    32   1
    27    23    24   1
    28    24    25   1
    29    25    26   1
    30    27    28   1
    31    28    29  ar
    32    29    30  ar
    33    29    31  ar
    34     1    34   1
    35     2    35   1
    36     5    36   1
    37     6    37   1
    38     7    38   1
    39     7    39   1
    40     8    40   1
    41     8    41   1
    42     9    42   1
    43     9    43   1
    44    10    44   1
    45    10    45   1
    46    11    46   1
    47    11    47   1
    48    12    48   1
    49    12    49   1
    50    13    50   1
    51    13    51   1
    52    14    52   1
    53    14    53   1
    54    15    54   1
    55    15    55   1
    56    17    56   1
    57    18    57   1
    58    20    58   1
    59    20    59   1
    60    22    60   1
    61    23    61   1
    62    23    62   1
    63    24    63   1
    64    24    64   1
    65    25    65   1
    66    25    66   1
    67    26    67   1
    68    26    68   1
    69    26    69   1
    70    27    70   1
    71    27    71   1
    72    28    72   1
    73    30    73   1
    74    30    74   1
    75    31    75   1
    76    31    76   1
    77    32    77   1
@<TRIPOS>SUBSTRUCTURE
     1  FA4      1

