@<TRIPOS>MOLECULE
2d1o_ligand_015
    77    77
SMALL
GAST_HUCK
****
This file was generated by PARSER (from files_GN.cpp)

@<TRIPOS>ATOM
      1 C1         27.0432    4.3193   26.6184 C.ar        1 FA4      -0.0755
      2 C2         27.5502    4.2731   25.3099 C.ar        1 FA4      -0.0668
      3 C3         27.3307    5.3330   24.3904 C.ar        1 FA4      -0.0377
      4 C4         26.5254    6.4446   24.8049 C.ar        1 FA4      -0.0050
      5 C5         26.0475    6.4795   26.1413 C.ar        1 FA4      -0.0635
      6 C6         26.3008    5.4300   27.0396 C.ar        1 FA4      -0.0754
      7 C7         27.8920    5.1635   23.0096 C.3         1 FA4      -0.0215
      8 C8         29.4403    4.9892   22.8876 C.3         1 FA4      -0.0443
      9 C9         30.3100    6.2728   22.9786 C.3         1 FA4      -0.0514
     10 C10        29.9782    7.4407   22.0041 C.3         1 FA4      -0.0529
     11 C11        29.7531    7.0372   20.5149 C.3         1 FA4      -0.0530
     12 C12        29.4534    8.2388   19.5721 C.3         1 FA4      -0.0529
     13 C13        30.6717    9.1166   19.1612 C.3         1 FA4      -0.0510
     14 C14        31.5488    8.4780   18.0516 C.3         1 FA4      -0.0361
     15 C15        32.7701    9.3536   17.6684 C.3         1 FA4       0.0374
     16 C16        33.5386    8.7911   16.5729 C.2         1 FA4       0.1782
     17 N17        33.7018    9.4667   15.4406 N.am        1 FA4      -0.2657
     18 C18        34.5698    9.1287   14.3452 C.3         1 FA4       0.1325
     19 O19        34.0393    7.6845   16.7430 O.2         1 FA4      -0.3969
     20 C20        35.4006   10.3737   13.8987 C.3         1 FA4      -0.0123
     21 C21        33.8271    8.4895   13.2660 C.2         1 FA4       0.2244
     22 N22        34.2318    7.3355   12.7591 N.am        1 FA4      -0.1623
     23 C23        34.7944   11.3986   12.8938 C.3         1 FA4      -0.0440
     24 C24        33.6970   12.3458   13.4495 C.3         1 FA4      -0.0124
     25 C25        33.6459   13.7276   12.7448 C.3         1 FA4      -0.0354
     26 N26        33.4426   13.6493   11.2916 N.4         1 FA4       0.2185
     27 C27        26.1273    7.5693   23.9030 C.3         1 FA4       0.0939
     28 N28        25.0762    7.2159   23.0448 N.pl3       1 FA4      -0.2620
     29 C29        23.8151    7.3803   23.2346 C.cat       1 FA4       0.2900
     30 N30        23.0345    7.0421   22.2839 N.pl3       1 FA4      -0.2847
     31 N31        23.2832    7.8724   24.2911 N.pl3       1 FA4      -0.2847
     32 O32        33.5957    6.7455   11.7880 O.3         1 FA4      -0.2717
     33 O33        32.8054    9.0029   12.8255 O.2         1 FA4      -0.3944
     34 H1         27.2123    3.5437   27.2640 H           1 FA4       0.0541
     35 H2         28.0726    3.4365   25.0326 H           1 FA4       0.0537
     36 H3         25.4762    7.2624   26.4715 H           1 FA4       0.0538
     37 H4         25.9300    5.4655   27.9921 H           1 FA4       0.0541
     38 H5         27.6117    5.9878   22.3563 H           1 FA4       0.0411
     39 H6         27.4283    4.2692   22.5807 H           1 FA4       0.0411
     40 H7         29.6548    4.5004   21.9317 H           1 FA4       0.0286
     41 H8         29.7801    4.2958   23.6619 H           1 FA4       0.0286
     42 H9         31.3517    5.9770   22.8112 H           1 FA4       0.0267
     43 H10        30.2499    6.6602   23.9999 H           1 FA4       0.0267
     44 H11        30.8038    8.1536   22.0538 H           1 FA4       0.0265
     45 H12        29.0881    7.9528   22.3699 H           1 FA4       0.0265
     46 H13        28.8881    6.3728   20.4657 H           1 FA4       0.0265
     47 H14        30.6177    6.4705   20.1548 H           1 FA4       0.0265
     48 H15        28.7116    8.8855   20.0506 H           1 FA4       0.0265
     49 H16        28.9897    7.8507   18.6598 H           1 FA4       0.0265
     50 H17        31.2876    9.3275   20.0380 H           1 FA4       0.0267
     51 H18        30.2887   10.0705   18.7900 H           1 FA4       0.0267
     52 H19        30.9452    8.3174   17.1553 H           1 FA4       0.0290
     53 H20        31.9048    7.5037   18.3994 H           1 FA4       0.0290
     54 H21        33.4360    9.4468   18.5328 H           1 FA4       0.0502
     55 H22        32.4180   10.3572   17.4179 H           1 FA4       0.0502
     56 H23        33.2214   10.3052   15.3652 H           1 FA4       0.1882
     57 H24        35.3199    8.4092   14.7005 H           1 FA4       0.0799
     58 H25        36.3216   10.0005   13.4408 H           1 FA4       0.0312
     59 H26        35.7052   10.9177   14.7975 H           1 FA4       0.0312
     60 H27        35.0303    6.9161   13.1190 H           1 FA4       0.2217
     61 H28        34.3993   10.8591   12.0302 H           1 FA4       0.0269
     62 H29        35.6241   12.0127   12.5345 H           1 FA4       0.0269
     63 H30        33.8812   12.5196   14.5128 H           1 FA4       0.0317
     64 H31        32.7195   11.8692   13.3522 H           1 FA4       0.0317
     65 H32        34.5794   14.2634   12.9278 H           1 FA4       0.0813
     66 H33        32.8314   14.3182   13.1685 H           1 FA4       0.0813
     67 H34        33.5382   14.5836   10.8870 H           1 FA4       0.1994
     68 H35        32.5099   13.2908   11.0762 H           1 FA4       0.1994
     69 H36        34.1439   13.0347   10.8724 H           1 FA4       0.1994
     70 H37        26.9811    7.8592   23.2942 H           1 FA4       0.0839
     71 H38        25.8684    8.4812   24.4589 H           1 FA4       0.0839
     72 H39        25.3194    6.8576   22.2158 H           1 FA4       0.2664
     73 H40        22.1096    7.1636   22.3677 H           1 FA4       0.2615
     74 H41        23.3899    6.6806   21.4959 H           1 FA4       0.2615
     75 H42        23.8206    8.1308   25.0102 H           1 FA4       0.2615
     76 H43        22.3499    7.9659   24.3498 H           1 FA4       0.2615
     77 H44        33.9263    5.8224   11.7913 H           1 FA4       0.2490
@<TRIPOS>BOND
     1     1     2  ar
     2     1     6  ar
     3     2     3  ar
     4     3     4  ar
     5     3     7   1
     6     4     5  ar
     7     4    27   1
     8     5     6  ar
     9     7     8   1
    10     8     9   1
    11     9    10   1
    12    10    11   1
    13    11    12   1
    14    12    13   1
    15    13    14   1
    16    14    15   1
    17    15    16   1
    18    16    17  am
    19    16    19   2
    20    17    18   1
    21    18    20   1
    22    18    21   1
    23    20    23   1
    24    21    22  am
    25    21    33   2
    26    22    32   1
    27    23    24   1
    28    24    25   1
    29    25    26   1
    30    27    28   1
    31    28    29  ar
    32    29    30  ar
    33    29    31  ar
    34     1    34   1
    35     2    35   1
    36     5    36   1
    37     6    37   1
    38     7    38   1
    39     7    39   1
    40     8    40   1
    41     8    41   1
    42     9    42   1
    43     9    43   1
    44    10    44   1
    45    10    45   1
    46    11    46   1
    47    11    47   1
    48    12    48   1
    49    12    49   1
    50    13    50   1
    51    13    51   1
    52    14    52   1
    53    14    53   1
    54    15    54   1
    55    15    55   1
    56    17    56   1
    57    18    57   1
    58    20    58   1
    59    20    59   1
    60    22    60   1
    61    23    61   1
    62    23    62   1
    63    24    63   1
    64    24    64   1
    65    25    65   1
    66    25    66   1
    67    26    67   1
    68    26    68   1
    69    26    69   1
    70    27    70   1
    71    27    71   1
    72    28    72   1
    73    30    73   1
    74    30    74   1
    75    31    75   1
    76    31    76   1
    77    32    77   1
@<TRIPOS>SUBSTRUCTURE
     1  FA4      1

