@<TRIPOS>MOLECULE
2d1o_ligand_061
    77    77
SMALL
GAST_HUCK
****
This file was generated by PARSER (from files_GN.cpp)

@<TRIPOS>ATOM
      1 C1         26.4449    0.2746   10.9758 C.ar        1 FA4      -0.0755
      2 C2         26.6035    1.3731   11.8415 C.ar        1 FA4      -0.0668
      3 C3         25.6747    1.6255   12.8882 C.ar        1 FA4      -0.0377
      4 C4         24.5625    0.7385   13.0553 C.ar        1 FA4      -0.0050
      5 C5         24.4643   -0.3850   12.1920 C.ar        1 FA4      -0.0635
      6 C6         25.3920   -0.6289   11.1653 C.ar        1 FA4      -0.0754
      7 C7         25.9751    2.8007   13.7675 C.3         1 FA4      -0.0215
      8 C8         26.0873    4.1436   12.9791 C.3         1 FA4      -0.0443
      9 C9         26.7157    5.3191   13.7842 C.3         1 FA4      -0.0514
     10 C10        28.2081    5.0799   14.1678 C.3         1 FA4      -0.0529
     11 C11        28.9795    6.3458   14.6505 C.3         1 FA4      -0.0530
     12 C12        28.9121    6.5951   16.1897 C.3         1 FA4      -0.0529
     13 C13        30.0429    7.5129   16.7551 C.3         1 FA4      -0.0510
     14 C14        31.3066    6.7705   17.2960 C.3         1 FA4      -0.0361
     15 C15        32.2729    6.1448   16.2484 C.3         1 FA4       0.0374
     16 C16        33.3034    7.0641   15.7843 C.2         1 FA4       0.1782
     17 N17        33.0720    7.8635   14.7513 N.am        1 FA4      -0.2657
     18 C18        34.0056    8.7520   14.1125 C.3         1 FA4       0.1325
     19 O19        34.3842    7.0651   16.3640 O.2         1 FA4      -0.3969
     20 C20        33.3890   10.1871   14.0837 C.3         1 FA4      -0.0123
     21 C21        34.2734    8.1821   12.7964 C.2         1 FA4       0.2244
     22 N22        35.2887    7.3616   12.6040 N.am        1 FA4      -0.1623
     23 C23        34.1331   11.2172   13.1814 C.3         1 FA4      -0.0440
     24 C24        33.3955   12.5845   13.1040 C.3         1 FA4      -0.0124
     25 C25        33.7709   13.4166   11.8500 C.3         1 FA4      -0.0354
     26 N26        32.6448   14.2627   11.4364 N.4         1 FA4       0.2185
     27 C27        23.5164    0.9888   14.0986 C.3         1 FA4       0.0939
     28 N28        22.3415    0.2201   14.0462 N.pl3       1 FA4      -0.2620
     29 C29        21.4639    0.1806   13.1165 C.cat       1 FA4       0.2900
     30 N30        20.4696   -0.6067   13.2695 N.pl3       1 FA4      -0.2847
     31 N31        21.5136    0.8694   12.0365 N.pl3       1 FA4      -0.2847
     32 O32        35.5199    6.7774   11.4542 O.3         1 FA4      -0.2717
     33 O33        33.4832    8.3723   11.8827 O.2         1 FA4      -0.3944
     34 H1         27.1081    0.1163   10.2133 H           1 FA4       0.0541
     35 H2         27.4156    1.9878   11.6992 H           1 FA4       0.0537
     36 H3         23.7107   -1.0564   12.3063 H           1 FA4       0.0538
     37 H4         25.2946   -1.4531   10.5567 H           1 FA4       0.0541
     38 H5         26.9219    2.5796   14.2732 H           1 FA4       0.0411
     39 H6         25.2320    2.9277   14.5555 H           1 FA4       0.0411
     40 H7         25.0736    4.4390   12.6669 H           1 FA4       0.0286
     41 H8         26.6823    3.9949   12.0682 H           1 FA4       0.0286
     42 H9         26.1250    5.5211   14.6874 H           1 FA4       0.0267
     43 H10        26.6706    6.2045   13.1359 H           1 FA4       0.0267
     44 H11        28.7316    4.6989   13.2810 H           1 FA4       0.0265
     45 H12        28.2706    4.3080   14.9431 H           1 FA4       0.0265
     46 H13        28.6020    7.2332   14.1298 H           1 FA4       0.0265
     47 H14        30.0229    6.2216   14.3449 H           1 FA4       0.0265
     48 H15        28.9207    5.6414   16.7347 H           1 FA4       0.0265
     49 H16        27.9438    7.0605   16.4024 H           1 FA4       0.0265
     50 H17        29.6172    8.0596   17.6045 H           1 FA4       0.0267
     51 H18        30.3344    8.2585   16.0109 H           1 FA4       0.0267
     52 H19        30.9704    5.9731   17.9635 H           1 FA4       0.0290
     53 H20        31.8772    7.4702   17.9191 H           1 FA4       0.0290
     54 H21        31.7154    5.7382   15.3997 H           1 FA4       0.0502
     55 H22        32.7634    5.2853   16.7188 H           1 FA4       0.0502
     56 H23        32.1890    7.8056   14.3447 H           1 FA4       0.1882
     57 H24        34.9498    8.8174   14.6655 H           1 FA4       0.0799
     58 H25        33.3671   10.5768   15.1065 H           1 FA4       0.0312
     59 H26        32.3511   10.1064   13.7425 H           1 FA4       0.0312
     60 H27        35.8300    7.1101   13.3684 H           1 FA4       0.2217
     61 H28        34.2086   10.8037   12.1719 H           1 FA4       0.0269
     62 H29        35.1471   11.3686   13.5602 H           1 FA4       0.0269
     63 H30        33.6177   13.1640   14.0028 H           1 FA4       0.0317
     64 H31        32.3154   12.4052   13.0894 H           1 FA4       0.0317
     65 H32        34.0099   12.7612   11.0086 H           1 FA4       0.0813
     66 H33        34.6384   14.0425   12.0630 H           1 FA4       0.0813
     67 H34        32.9279   14.8452   10.6465 H           1 FA4       0.1994
     68 H35        32.3553   14.8635   12.2122 H           1 FA4       0.1994
     69 H36        31.8691   13.6510   11.1556 H           1 FA4       0.1994
     70 H37        23.2509    2.0545   14.0945 H           1 FA4       0.0839
     71 H38        23.9747    0.7661   15.0629 H           1 FA4       0.0839
     72 H39        22.1705   -0.3070   14.8052 H           1 FA4       0.2664
     73 H40        19.8207   -0.6852   12.6035 H           1 FA4       0.2615
     74 H41        20.4078   -1.1364   14.0380 H           1 FA4       0.2615
     75 H42        22.2271    1.4509   11.8841 H           1 FA4       0.2615
     76 H43        20.8499    0.7755   11.3827 H           1 FA4       0.2615
     77 H44        35.1409    5.8784   11.5513 H           1 FA4       0.2490
@<TRIPOS>BOND
     1     1     2  ar
     2     1     6  ar
     3     2     3  ar
     4     3     4  ar
     5     3     7   1
     6     4     5  ar
     7     4    27   1
     8     5     6  ar
     9     7     8   1
    10     8     9   1
    11     9    10   1
    12    10    11   1
    13    11    12   1
    14    12    13   1
    15    13    14   1
    16    14    15   1
    17    15    16   1
    18    16    17  am
    19    16    19   2
    20    17    18   1
    21    18    20   1
    22    18    21   1
    23    20    23   1
    24    21    22  am
    25    21    33   2
    26    22    32   1
    27    23    24   1
    28    24    25   1
    29    25    26   1
    30    27    28   1
    31    28    29  ar
    32    29    30  ar
    33    29    31  ar
    34     1    34   1
    35     2    35   1
    36     5    36   1
    37     6    37   1
    38     7    38   1
    39     7    39   1
    40     8    40   1
    41     8    41   1
    42     9    42   1
    43     9    43   1
    44    10    44   1
    45    10    45   1
    46    11    46   1
    47    11    47   1
    48    12    48   1
    49    12    49   1
    50    13    50   1
    51    13    51   1
    52    14    52   1
    53    14    53   1
    54    15    54   1
    55    15    55   1
    56    17    56   1
    57    18    57   1
    58    20    58   1
    59    20    59   1
    60    22    60   1
    61    23    61   1
    62    23    62   1
    63    24    63   1
    64    24    64   1
    65    25    65   1
    66    25    66   1
    67    26    67   1
    68    26    68   1
    69    26    69   1
    70    27    70   1
    71    27    71   1
    72    28    72   1
    73    30    73   1
    74    30    74   1
    75    31    75   1
    76    31    76   1
    77    32    77   1
@<TRIPOS>SUBSTRUCTURE
     1  FA4      1

