@<TRIPOS>MOLECULE
2d1o_ligand_022
    77    77
SMALL
GAST_HUCK
****
This file was generated by PARSER (from files_GN.cpp)

@<TRIPOS>ATOM
      1 C1         24.8945    0.6475   12.8244 C.ar        1 FA4      -0.0755
      2 C2         25.6342    1.7101   13.3657 C.ar        1 FA4      -0.0668
      3 C3         25.0778    3.0091   13.5072 C.ar        1 FA4      -0.0377
      4 C4         23.7088    3.2031   13.1363 C.ar        1 FA4      -0.0050
      5 C5         22.9826    2.1188   12.5850 C.ar        1 FA4      -0.0635
      6 C6         23.5656    0.8528   12.4303 C.ar        1 FA4      -0.0754
      7 C7         25.9554    4.0817   14.0862 C.3         1 FA4      -0.0215
      8 C8         27.2865    4.3099   13.3102 C.3         1 FA4      -0.0443
      9 C9         28.0307    5.6314   13.6423 C.3         1 FA4      -0.0514
     10 C10        28.3169    5.8609   15.1505 C.3         1 FA4      -0.0529
     11 C11        29.3780    6.9610   15.4216 C.3         1 FA4      -0.0530
     12 C12        29.3704    7.4462   16.8946 C.3         1 FA4      -0.0529
     13 C13        30.5431    8.3880   17.2886 C.3         1 FA4      -0.0510
     14 C14        31.9318    7.6934   17.4709 C.3         1 FA4      -0.0361
     15 C15        32.9620    7.9082   16.3228 C.3         1 FA4       0.0374
     16 C16        33.6413    9.1930   16.2615 C.2         1 FA4       0.1782
     17 N17        34.7403    9.2843   15.5172 N.am        1 FA4      -0.2657
     18 C18        35.5475   10.4417   15.2505 C.3         1 FA4       0.1325
     19 O19        33.1980   10.1681   16.8550 O.2         1 FA4      -0.3969
     20 C20        35.5252   10.8201   13.7325 C.3         1 FA4      -0.0123
     21 C21        36.8916   10.2053   15.7722 C.2         1 FA4       0.2244
     22 N22        37.6261    9.1756   15.3824 N.am        1 FA4      -0.1623
     23 C23        35.5471    9.6544   12.6957 C.3         1 FA4      -0.0440
     24 C24        34.1545    8.9917   12.4101 C.3         1 FA4      -0.0124
     25 C25        34.1217    7.4487   12.5541 C.3         1 FA4      -0.0354
     26 N26        34.9432    6.7805   11.5453 N.4         1 FA4       0.2185
     27 C27        22.9689    4.4822   13.3832 C.3         1 FA4       0.0939
     28 N28        22.8923    4.7824   14.7473 N.pl3       1 FA4      -0.2620
     29 C29        22.2674    4.1462   15.6654 C.cat       1 FA4       0.2900
     30 N30        22.3999    4.5555   16.8674 N.pl3       1 FA4      -0.2847
     31 N31        21.5289    3.1200   15.4731 N.pl3       1 FA4      -0.2847
     32 O32        38.8252    8.9474   15.8508 O.3         1 FA4      -0.2717
     33 O33        37.3482   10.9750   16.6110 O.2         1 FA4      -0.3944
     34 H1         25.3193   -0.2751   12.7198 H           1 FA4       0.0541
     35 H2         26.5956    1.5215   13.6593 H           1 FA4       0.0537
     36 H3         21.9993    2.2264   12.3136 H           1 FA4       0.0538
     37 H4         23.0182    0.0750   12.0586 H           1 FA4       0.0541
     38 H5         26.1905    3.8033   15.1173 H           1 FA4       0.0411
     39 H6         25.4436    5.0395   14.1327 H           1 FA4       0.0411
     40 H7         27.0765    4.3062   12.2344 H           1 FA4       0.0286
     41 H8         27.9684    3.4769   13.5120 H           1 FA4       0.0286
     42 H9         27.4458    6.4701   13.2614 H           1 FA4       0.0267
     43 H10        28.9812    5.6266   13.1048 H           1 FA4       0.0267
     44 H11        28.6718    4.9275   15.6026 H           1 FA4       0.0265
     45 H12        27.3777    6.1335   15.6400 H           1 FA4       0.0265
     46 H13        29.1928    7.8179   14.7686 H           1 FA4       0.0265
     47 H14        30.3605    6.5523   15.1713 H           1 FA4       0.0265
     48 H15        29.3654    6.5820   17.5651 H           1 FA4       0.0265
     49 H16        28.4325    7.9836   17.0600 H           1 FA4       0.0265
     50 H17        30.2708    8.8458   18.2430 H           1 FA4       0.0267
     51 H18        30.6146    9.2012   16.5637 H           1 FA4       0.0267
     52 H19        31.7826    6.6155   17.5838 H           1 FA4       0.0290
     53 H20        32.3879    8.0357   18.4065 H           1 FA4       0.0290
     54 H21        32.4713    7.7341   15.3624 H           1 FA4       0.0502
     55 H22        33.7271    7.1336   16.4410 H           1 FA4       0.0502
     56 H23        35.0392    8.4636   15.0980 H           1 FA4       0.1882
     57 H24        35.1316   11.3116   15.7799 H           1 FA4       0.0799
     58 H25        36.3772   11.4738   13.5214 H           1 FA4       0.0312
     59 H26        34.6332   11.4238   13.5380 H           1 FA4       0.0312
     60 H27        37.2551    8.5485   14.7441 H           1 FA4       0.2217
     61 H28        36.2696    8.9056   13.0222 H           1 FA4       0.0269
     62 H29        35.9311   10.0532   11.7533 H           1 FA4       0.0269
     63 H30        33.8370    9.2420   11.3909 H           1 FA4       0.0317
     64 H31        33.3918    9.4013   13.0784 H           1 FA4       0.0317
     65 H32        33.0939    7.0914   12.4412 H           1 FA4       0.0813
     66 H33        34.4691    7.1472   13.5446 H           1 FA4       0.0813
     67 H34        34.7883    5.7729   11.6020 H           1 FA4       0.1994
     68 H35        35.9285    6.9935   11.7095 H           1 FA4       0.1994
     69 H36        34.6774    7.1126   10.6166 H           1 FA4       0.1994
     70 H37        21.9566    4.4670   12.9701 H           1 FA4       0.0839
     71 H38        23.4926    5.2899   12.8708 H           1 FA4       0.0839
     72 H39        23.3851    5.5283   15.0284 H           1 FA4       0.2664
     73 H40        21.9640    4.1104   17.5651 H           1 FA4       0.2615
     74 H41        22.9597    5.2830   17.0458 H           1 FA4       0.2615
     75 H42        21.3994    2.7844   14.6114 H           1 FA4       0.2615
     76 H43        21.1192    2.6991   16.2005 H           1 FA4       0.2615
     77 H44        39.1660    8.1753   15.3417 H           1 FA4       0.2490
@<TRIPOS>BOND
     1     1     2  ar
     2     1     6  ar
     3     2     3  ar
     4     3     4  ar
     5     3     7   1
     6     4     5  ar
     7     4    27   1
     8     5     6  ar
     9     7     8   1
    10     8     9   1
    11     9    10   1
    12    10    11   1
    13    11    12   1
    14    12    13   1
    15    13    14   1
    16    14    15   1
    17    15    16   1
    18    16    17  am
    19    16    19   2
    20    17    18   1
    21    18    20   1
    22    18    21   1
    23    20    23   1
    24    21    22  am
    25    21    33   2
    26    22    32   1
    27    23    24   1
    28    24    25   1
    29    25    26   1
    30    27    28   1
    31    28    29  ar
    32    29    30  ar
    33    29    31  ar
    34     1    34   1
    35     2    35   1
    36     5    36   1
    37     6    37   1
    38     7    38   1
    39     7    39   1
    40     8    40   1
    41     8    41   1
    42     9    42   1
    43     9    43   1
    44    10    44   1
    45    10    45   1
    46    11    46   1
    47    11    47   1
    48    12    48   1
    49    12    49   1
    50    13    50   1
    51    13    51   1
    52    14    52   1
    53    14    53   1
    54    15    54   1
    55    15    55   1
    56    17    56   1
    57    18    57   1
    58    20    58   1
    59    20    59   1
    60    22    60   1
    61    23    61   1
    62    23    62   1
    63    24    63   1
    64    24    64   1
    65    25    65   1
    66    25    66   1
    67    26    67   1
    68    26    68   1
    69    26    69   1
    70    27    70   1
    71    27    71   1
    72    28    72   1
    73    30    73   1
    74    30    74   1
    75    31    75   1
    76    31    76   1
    77    32    77   1
@<TRIPOS>SUBSTRUCTURE
     1  FA4      1

