@<TRIPOS>MOLECULE
2d1o_ligand_056
    77    77
SMALL
GAST_HUCK
****
This file was generated by PARSER (from files_GN.cpp)

@<TRIPOS>ATOM
      1 C1         25.8613    3.9177   12.5139 C.ar        1 FA4      -0.0755
      2 C2         26.6813    5.0022   12.8570 C.ar        1 FA4      -0.0668
      3 C3         27.7512    4.8724   13.7804 C.ar        1 FA4      -0.0377
      4 C4         27.9983    3.5826   14.3616 C.ar        1 FA4      -0.0050
      5 C5         27.1410    2.5030   14.0006 C.ar        1 FA4      -0.0635
      6 C6         26.0926    2.6628   13.0876 C.ar        1 FA4      -0.0754
      7 C7         28.5788    6.0952   14.0494 C.3         1 FA4      -0.0215
      8 C8         28.6672    6.5233   15.5412 C.3         1 FA4      -0.0443
      9 C9         29.7887    7.5756   15.8314 C.3         1 FA4      -0.0514
     10 C10        30.4405    7.4558   17.2390 C.3         1 FA4      -0.0529
     11 C11        29.4470    7.2573   18.4175 C.3         1 FA4      -0.0530
     12 C12        30.1937    7.1062   19.7692 C.3         1 FA4      -0.0529
     13 C13        29.4442    6.2846   20.8553 C.3         1 FA4      -0.0510
     14 C14        28.4904    7.1228   21.7548 C.3         1 FA4      -0.0361
     15 C15        28.2289    6.4818   23.1517 C.3         1 FA4       0.0374
     16 C16        29.0244    6.9783   24.2589 C.2         1 FA4       0.1782
     17 N17        28.5953    6.7672   25.4981 N.am        1 FA4      -0.2657
     18 C18        29.3222    7.0037   26.7204 C.3         1 FA4       0.1325
     19 O19        30.0921    7.5476   24.0655 O.2         1 FA4      -0.3969
     20 C20        29.5153    5.6759   27.5248 C.3         1 FA4      -0.0123
     21 C21        28.6363    8.0352   27.4895 C.2         1 FA4       0.2244
     22 N22        27.4026    7.8544   27.9367 N.am        1 FA4      -0.1623
     23 C23        29.7397    4.3879   26.6750 C.3         1 FA4      -0.0440
     24 C24        30.8962    4.4715   25.6377 C.3         1 FA4      -0.0124
     25 C25        30.7044    3.5501   24.4039 C.3         1 FA4      -0.0354
     26 N26        31.3448    2.2407   24.5701 N.4         1 FA4       0.2185
     27 C27        29.0300    3.2824   15.4094 C.3         1 FA4       0.0939
     28 N28        30.2402    3.9687   15.3809 N.pl3       1 FA4      -0.2620
     29 C29        31.1147    3.9752   14.4419 C.cat       1 FA4       0.2900
     30 N30        32.1607    4.6880   14.6156 N.pl3       1 FA4      -0.2847
     31 N31        31.0155    3.3236   13.3428 N.pl3       1 FA4      -0.2847
     32 O32        26.7494    8.7698   28.6000 O.3         1 FA4      -0.2717
     33 O33        29.1924    9.1120   27.6833 O.2         1 FA4      -0.3944
     34 H1         25.0881    4.0449   11.8471 H           1 FA4       0.0541
     35 H2         26.4796    5.9048   12.4084 H           1 FA4       0.0537
     36 H3         27.2624    1.5765   14.4220 H           1 FA4       0.0538
     37 H4         25.4862    1.8727   12.8493 H           1 FA4       0.0541
     38 H5         28.1838    6.9639   13.5015 H           1 FA4       0.0411
     39 H6         29.5770    5.9343   13.6401 H           1 FA4       0.0411
     40 H7         28.8363    5.6395   16.1478 H           1 FA4       0.0286
     41 H8         27.7049    6.9348   15.8418 H           1 FA4       0.0286
     42 H9         29.3789    8.5849   15.7250 H           1 FA4       0.0267
     43 H10        30.5976    7.4744   15.0993 H           1 FA4       0.0267
     44 H11        31.0238    8.3660   17.4208 H           1 FA4       0.0265
     45 H12        31.1431    6.6160   17.2224 H           1 FA4       0.0265
     46 H13        28.8546    6.3578   18.2513 H           1 FA4       0.0265
     47 H14        28.7738    8.1111   18.4656 H           1 FA4       0.0265
     48 H15        30.4105    8.1004   20.1688 H           1 FA4       0.0265
     49 H16        31.1465    6.6037   19.5861 H           1 FA4       0.0265
     50 H17        30.2055    5.8053   21.4781 H           1 FA4       0.0267
     51 H18        28.8754    5.4836   20.3674 H           1 FA4       0.0267
     52 H19        27.5306    7.2238   21.2383 H           1 FA4       0.0290
     53 H20        28.8975    8.1266   21.8944 H           1 FA4       0.0290
     54 H21        28.3891    5.4014   23.0621 H           1 FA4       0.0502
     55 H22        27.1746    6.6326   23.4015 H           1 FA4       0.0502
     56 H23        27.7261    6.3415   25.5937 H           1 FA4       0.1882
     57 H24        30.3327    7.3628   26.4943 H           1 FA4       0.0799
     58 H25        28.6319    5.5002   28.1451 H           1 FA4       0.0312
     59 H26        30.3681    5.7963   28.1987 H           1 FA4       0.0312
     60 H27        26.9577    7.0152   27.7413 H           1 FA4       0.2217
     61 H28        28.8079    4.1528   26.1506 H           1 FA4       0.0269
     62 H29        29.9441    3.5573   27.3565 H           1 FA4       0.0269
     63 H30        31.8427    4.2309   26.1289 H           1 FA4       0.0317
     64 H31        30.9678    5.4965   25.2682 H           1 FA4       0.0317
     65 H32        31.1607    4.0217   23.5303 H           1 FA4       0.0813
     66 H33        29.6421    3.4077   24.1922 H           1 FA4       0.0813
     67 H34        31.0893    1.6416   23.7832 H           1 FA4       0.1994
     68 H35        31.0460    1.8029   25.4439 H           1 FA4       0.1994
     69 H36        32.3603    2.3713   24.5724 H           1 FA4       0.1994
     70 H37        29.2767    2.2134   15.4145 H           1 FA4       0.0839
     71 H38        28.5636    3.4743   16.3803 H           1 FA4       0.0839
     72 H39        30.4590    4.4673   16.1341 H           1 FA4       0.2664
     73 H40        32.8062    4.7309   13.9408 H           1 FA4       0.2615
     74 H41        32.2793    5.1797   15.4031 H           1 FA4       0.2615
     75 H42        30.2803    2.7774   13.1794 H           1 FA4       0.2615
     76 H43        31.7016    3.3892   12.7117 H           1 FA4       0.2615
     77 H44        25.9482    8.9523   28.0570 H           1 FA4       0.2490
@<TRIPOS>BOND
     1     1     2  ar
     2     1     6  ar
     3     2     3  ar
     4     3     4  ar
     5     3     7   1
     6     4     5  ar
     7     4    27   1
     8     5     6  ar
     9     7     8   1
    10     8     9   1
    11     9    10   1
    12    10    11   1
    13    11    12   1
    14    12    13   1
    15    13    14   1
    16    14    15   1
    17    15    16   1
    18    16    17  am
    19    16    19   2
    20    17    18   1
    21    18    20   1
    22    18    21   1
    23    20    23   1
    24    21    22  am
    25    21    33   2
    26    22    32   1
    27    23    24   1
    28    24    25   1
    29    25    26   1
    30    27    28   1
    31    28    29  ar
    32    29    30  ar
    33    29    31  ar
    34     1    34   1
    35     2    35   1
    36     5    36   1
    37     6    37   1
    38     7    38   1
    39     7    39   1
    40     8    40   1
    41     8    41   1
    42     9    42   1
    43     9    43   1
    44    10    44   1
    45    10    45   1
    46    11    46   1
    47    11    47   1
    48    12    48   1
    49    12    49   1
    50    13    50   1
    51    13    51   1
    52    14    52   1
    53    14    53   1
    54    15    54   1
    55    15    55   1
    56    17    56   1
    57    18    57   1
    58    20    58   1
    59    20    59   1
    60    22    60   1
    61    23    61   1
    62    23    62   1
    63    24    63   1
    64    24    64   1
    65    25    65   1
    66    25    66   1
    67    26    67   1
    68    26    68   1
    69    26    69   1
    70    27    70   1
    71    27    71   1
    72    28    72   1
    73    30    73   1
    74    30    74   1
    75    31    75   1
    76    31    76   1
    77    32    77   1
@<TRIPOS>SUBSTRUCTURE
     1  FA4      1

