@<TRIPOS>MOLECULE
2d1o_ligand_093
    77    77
SMALL
GAST_HUCK
****
This file was generated by PARSER (from files_GN.cpp)

@<TRIPOS>ATOM
      1 C1         29.1975    8.3013   16.8292 C.ar        1 FA4      -0.0755
      2 C2         30.0054    8.5967   15.7206 C.ar        1 FA4      -0.0668
      3 C3         31.0476    7.7276   15.3151 C.ar        1 FA4      -0.0377
      4 C4         31.2770    6.5289   16.0661 C.ar        1 FA4      -0.0050
      5 C5         30.4639    6.2655   17.1988 C.ar        1 FA4      -0.0635
      6 C6         29.4315    7.1366   17.5749 C.ar        1 FA4      -0.0754
      7 C7         31.9272    8.1833   14.1871 C.3         1 FA4      -0.0215
      8 C8         33.2133    8.8840   14.7232 C.3         1 FA4      -0.0443
      9 C9         34.0019    9.7162   13.6755 C.3         1 FA4      -0.0514
     10 C10        34.7296    8.8892   12.5781 C.3         1 FA4      -0.0529
     11 C11        35.4218    9.7894   11.4978 C.3         1 FA4      -0.0530
     12 C12        34.7276    9.8110   10.0930 C.3         1 FA4      -0.0529
     13 C13        35.5375    9.1252    8.9569 C.3         1 FA4      -0.0510
     14 C14        36.9057    9.7869    8.6021 C.3         1 FA4      -0.0361
     15 C15        36.8684   10.8787    7.4719 C.3         1 FA4       0.0374
     16 C16        37.1586   12.2378    7.9017 C.2         1 FA4       0.1782
     17 N17        37.8650   13.0620    7.1259 N.am        1 FA4      -0.2657
     18 C18        38.2992   14.3930    7.4450 C.3         1 FA4       0.1325
     19 O19        36.7394   12.6038    8.9945 O.2         1 FA4      -0.3969
     20 C20        38.2799   15.3330    6.1806 C.3         1 FA4      -0.0123
     21 C21        39.6343   14.2592    8.0197 C.2         1 FA4       0.2244
     22 N22        39.8162   14.2825    9.3339 N.am        1 FA4      -0.1623
     23 C23        37.1143   16.3746    6.0930 C.3         1 FA4      -0.0440
     24 C24        36.0264   16.1484    5.0119 C.3         1 FA4      -0.0124
     25 C25        35.0976   14.9232    5.2247 C.3         1 FA4      -0.0354
     26 N26        35.5170   13.7563    4.4395 N.4         1 FA4       0.2185
     27 C27        32.3577    5.5456   15.7196 C.3         1 FA4       0.0939
     28 N28        32.0419    4.7592   14.6000 N.pl3       1 FA4      -0.2620
     29 C29        31.1556    3.8373   14.4946 C.cat       1 FA4       0.2900
     30 N30        31.0876    3.2249   13.3810 N.pl3       1 FA4      -0.2847
     31 N31        30.3562    3.4742   15.4264 N.pl3       1 FA4      -0.2847
     32 O32        41.0022   14.1879    9.8793 O.3         1 FA4      -0.2717
     33 O33        40.6019   14.1100    7.2778 O.2         1 FA4      -0.3944
     34 H1         28.4520    8.9448   17.1161 H           1 FA4       0.0541
     35 H2         29.8352    9.4702   15.2242 H           1 FA4       0.0537
     36 H3         30.6115    5.4265   17.7542 H           1 FA4       0.0538
     37 H4         28.8565    6.9247   18.3934 H           1 FA4       0.0541
     38 H5         31.3724    8.8828   13.5538 H           1 FA4       0.0411
     39 H6         32.1979    7.3432   13.5383 H           1 FA4       0.0411
     40 H7         33.8742    8.1208   15.1674 H           1 FA4       0.0286
     41 H8         32.9253    9.5787   15.5283 H           1 FA4       0.0286
     42 H9         34.7547   10.2870   14.2248 H           1 FA4       0.0267
     43 H10        33.3177   10.4325   13.2012 H           1 FA4       0.0267
     44 H11        34.0162    8.1985   12.1132 H           1 FA4       0.0265
     45 H12        35.4942    8.2738   13.0693 H           1 FA4       0.0265
     46 H13        36.4569    9.4539   11.3851 H           1 FA4       0.0265
     47 H14        35.4823   10.8209   11.8594 H           1 FA4       0.0265
     48 H15        34.5268   10.8471    9.8073 H           1 FA4       0.0265
     49 H16        33.7477    9.3279   10.1569 H           1 FA4       0.0265
     50 H17        34.9196    9.0936    8.0555 H           1 FA4       0.0267
     51 H18        35.7146    8.0834    9.2494 H           1 FA4       0.0267
     52 H19        37.5625    8.9785    8.2589 H           1 FA4       0.0290
     53 H20        37.3662   10.1898    9.5098 H           1 FA4       0.0290
     54 H21        35.8880   10.8737    6.9856 H           1 FA4       0.0502
     55 H22        37.5935   10.5811    6.7030 H           1 FA4       0.0502
     56 H23        38.2004   12.6850    6.2986 H           1 FA4       0.1882
     57 H24        37.6447   14.8355    8.2038 H           1 FA4       0.0799
     58 H25        38.3049   14.7313    5.2681 H           1 FA4       0.0312
     59 H26        39.2013   15.9173    6.1742 H           1 FA4       0.0312
     60 H27        39.0399   14.3764    9.9152 H           1 FA4       0.2217
     61 H28        37.5595   17.3479    5.8687 H           1 FA4       0.0269
     62 H29        36.6221   16.4861    7.0651 H           1 FA4       0.0269
     63 H30        36.5018   16.0943    4.0231 H           1 FA4       0.0317
     64 H31        35.3946   17.0416    5.0076 H           1 FA4       0.0317
     65 H32        34.0859   15.1764    4.9032 H           1 FA4       0.0813
     66 H33        35.0578   14.6464    6.2827 H           1 FA4       0.0813
     67 H34        34.8525   12.9935    4.6007 H           1 FA4       0.1994
     68 H35        36.4561   13.4584    4.7230 H           1 FA4       0.1994
     69 H36        35.5215   14.0010    3.4434 H           1 FA4       0.1994
     70 H37        32.5807    4.8727   16.5750 H           1 FA4       0.0839
     71 H38        33.2828    6.0993   15.5116 H           1 FA4       0.0839
     72 H39        32.5795    4.8948   13.8531 H           1 FA4       0.2664
     73 H40        30.4670    2.5364   13.2570 H           1 FA4       0.2615
     74 H41        31.6796    3.4561   12.6909 H           1 FA4       0.2615
     75 H42        30.3819    3.8853   16.2645 H           1 FA4       0.2615
     76 H43        29.7386    2.7890   15.2642 H           1 FA4       0.2615
     77 H44        40.9490   13.3973   10.4651 H           1 FA4       0.2490
@<TRIPOS>BOND
     1     1     2  ar
     2     1     6  ar
     3     2     3  ar
     4     3     4  ar
     5     3     7   1
     6     4     5  ar
     7     4    27   1
     8     5     6  ar
     9     7     8   1
    10     8     9   1
    11     9    10   1
    12    10    11   1
    13    11    12   1
    14    12    13   1
    15    13    14   1
    16    14    15   1
    17    15    16   1
    18    16    17  am
    19    16    19   2
    20    17    18   1
    21    18    20   1
    22    18    21   1
    23    20    23   1
    24    21    22  am
    25    21    33   2
    26    22    32   1
    27    23    24   1
    28    24    25   1
    29    25    26   1
    30    27    28   1
    31    28    29  ar
    32    29    30  ar
    33    29    31  ar
    34     1    34   1
    35     2    35   1
    36     5    36   1
    37     6    37   1
    38     7    38   1
    39     7    39   1
    40     8    40   1
    41     8    41   1
    42     9    42   1
    43     9    43   1
    44    10    44   1
    45    10    45   1
    46    11    46   1
    47    11    47   1
    48    12    48   1
    49    12    49   1
    50    13    50   1
    51    13    51   1
    52    14    52   1
    53    14    53   1
    54    15    54   1
    55    15    55   1
    56    17    56   1
    57    18    57   1
    58    20    58   1
    59    20    59   1
    60    22    60   1
    61    23    61   1
    62    23    62   1
    63    24    63   1
    64    24    64   1
    65    25    65   1
    66    25    66   1
    67    26    67   1
    68    26    68   1
    69    26    69   1
    70    27    70   1
    71    27    71   1
    72    28    72   1
    73    30    73   1
    74    30    74   1
    75    31    75   1
    76    31    76   1
    77    32    77   1
@<TRIPOS>SUBSTRUCTURE
     1  FA4      1

