@<TRIPOS>MOLECULE
2d1o_ligand_067
    77    77
SMALL
GAST_HUCK
****
This file was generated by PARSER (from files_GN.cpp)

@<TRIPOS>ATOM
      1 C1         28.4447   11.3626   26.7953 C.ar        1 FA4      -0.0755
      2 C2         27.7915   11.0243   25.5992 C.ar        1 FA4      -0.0668
      3 C3         28.3756   11.2968   24.3361 C.ar        1 FA4      -0.0377
      4 C4         29.6370   11.9729   24.2924 C.ar        1 FA4      -0.0050
      5 C5         30.2821   12.2941   25.5135 C.ar        1 FA4      -0.0635
      6 C6         29.6936   11.9949   26.7515 C.ar        1 FA4      -0.0754
      7 C7         27.6137   10.8583   23.1239 C.3         1 FA4      -0.0215
      8 C8         27.4180    9.3146   23.0464 C.3         1 FA4      -0.0443
      9 C9         26.7626    8.8326   21.7204 C.3         1 FA4      -0.0514
     10 C10        27.7254    8.7527   20.4967 C.3         1 FA4      -0.0529
     11 C11        28.4915    7.4067   20.3962 C.3         1 FA4      -0.0530
     12 C12        29.6255    7.3780   19.3285 C.3         1 FA4      -0.0529
     13 C13        29.3391    8.1559   18.0122 C.3         1 FA4      -0.0510
     14 C14        30.4938    8.1494   16.9631 C.3         1 FA4      -0.0361
     15 C15        31.9249    8.1554   17.5603 C.3         1 FA4       0.0374
     16 C16        32.9645    8.0596   16.5399 C.2         1 FA4       0.1782
     17 N17        33.0479    8.9919   15.5934 N.am        1 FA4      -0.2657
     18 C18        34.0484    9.0817   14.5604 C.3         1 FA4       0.1325
     19 O19        33.7547    7.1290   16.6006 O.2         1 FA4      -0.3969
     20 C20        34.5164   10.5657   14.3635 C.3         1 FA4      -0.0123
     21 C21        33.5446    8.4283   13.3534 C.2         1 FA4       0.2244
     22 N22        34.1477    7.3664   12.8550 N.am        1 FA4      -0.1623
     23 C23        33.8076   11.4301   13.2850 C.3         1 FA4      -0.0440
     24 C24        34.2894   12.9175   13.2786 C.3         1 FA4      -0.0124
     25 C25        34.2932   13.6023   11.8907 C.3         1 FA4      -0.0354
     26 N26        33.0044   14.1875   11.5059 N.4         1 FA4       0.2185
     27 C27        30.3155   12.3668   23.0172 C.3         1 FA4       0.0939
     28 N28        29.5937   13.3263   22.2924 N.pl3       1 FA4      -0.2620
     29 C29        29.4173   14.5615   22.5762 C.cat       1 FA4       0.2900
     30 N30        28.6999   15.2565   21.7778 N.pl3       1 FA4      -0.2847
     31 N31        29.9050   15.1535   23.5903 N.pl3       1 FA4      -0.2847
     32 O32        33.6935    6.7662   11.7858 O.3         1 FA4      -0.2717
     33 O33        32.5207    8.8309   12.8210 O.2         1 FA4      -0.3944
     34 H1         28.0093   11.1503   27.6956 H           1 FA4       0.0541
     35 H2         26.8786   10.5658   25.6621 H           1 FA4       0.0537
     36 H3         31.1884   12.7667   25.5156 H           1 FA4       0.0538
     37 H4         30.1733   12.2379   27.6202 H           1 FA4       0.0541
     38 H5         28.0927   11.1858   22.2057 H           1 FA4       0.0411
     39 H6         26.6313   11.3403   23.1350 H           1 FA4       0.0411
     40 H7         26.7641    9.0090   23.8673 H           1 FA4       0.0286
     41 H8         28.3743    8.8086   23.1824 H           1 FA4       0.0286
     42 H9         25.9294    9.5027   21.4784 H           1 FA4       0.0267
     43 H10        26.3209    7.8437   21.8847 H           1 FA4       0.0267
     44 H11        28.4351    9.5812   20.5295 H           1 FA4       0.0265
     45 H12        27.1281    8.8695   19.5909 H           1 FA4       0.0265
     46 H13        27.7765    6.6092   20.1779 H           1 FA4       0.0265
     47 H14        28.9411    7.1759   21.3662 H           1 FA4       0.0265
     48 H15        29.8283    6.3299   19.0863 H           1 FA4       0.0265
     49 H16        30.5273    7.7907   19.7885 H           1 FA4       0.0265
     50 H17        29.1038    9.1942   18.2620 H           1 FA4       0.0267
     51 H18        28.4558    7.7262   17.5307 H           1 FA4       0.0267
     52 H19        30.3692    9.0391   16.3368 H           1 FA4       0.0290
     53 H20        30.3736    7.2733   16.3185 H           1 FA4       0.0290
     54 H21        32.0219    7.3146   18.2517 H           1 FA4       0.0502
     55 H22        32.0795    9.0718   18.1347 H           1 FA4       0.0502
     56 H23        32.3714    9.6879   15.6048 H           1 FA4       0.1882
     57 H24        34.9442    8.5432   14.8845 H           1 FA4       0.0799
     58 H25        35.5789   10.5410   14.1040 H           1 FA4       0.0312
     59 H26        34.4455   11.0755   15.3306 H           1 FA4       0.0312
     60 H27        34.9299    6.9996   13.2997 H           1 FA4       0.2217
     61 H28        32.7251   11.4033   13.4351 H           1 FA4       0.0269
     62 H29        34.0229   10.9879   12.3095 H           1 FA4       0.0269
     63 H30        35.3167   12.9567   13.6466 H           1 FA4       0.0317
     64 H31        33.6697   13.4943   13.9679 H           1 FA4       0.0317
     65 H32        34.5977   12.8940   11.1155 H           1 FA4       0.0813
     66 H33        35.0246   14.4142   11.9000 H           1 FA4       0.0813
     67 H34        33.1348   14.7528   10.6649 H           1 FA4       0.1994
     68 H35        32.6602   14.7829   12.2598 H           1 FA4       0.1994
     69 H36        32.3226   13.4549   11.3026 H           1 FA4       0.1994
     70 H37        30.4315   11.4752   22.3990 H           1 FA4       0.0839
     71 H38        31.3294   12.7433   23.1829 H           1 FA4       0.0839
     72 H39        29.1998   13.0234   21.5000 H           1 FA4       0.2664
     73 H40        28.5502   16.1645   21.9495 H           1 FA4       0.2615
     74 H41        28.3229   14.8631   21.0171 H           1 FA4       0.2615
     75 H42        30.4438   14.6896   24.1990 H           1 FA4       0.2615
     76 H43        29.7400   16.0655   23.7322 H           1 FA4       0.2615
     77 H44        34.0277    5.8433   11.8323 H           1 FA4       0.2490
@<TRIPOS>BOND
     1     1     2  ar
     2     1     6  ar
     3     2     3  ar
     4     3     4  ar
     5     3     7   1
     6     4     5  ar
     7     4    27   1
     8     5     6  ar
     9     7     8   1
    10     8     9   1
    11     9    10   1
    12    10    11   1
    13    11    12   1
    14    12    13   1
    15    13    14   1
    16    14    15   1
    17    15    16   1
    18    16    17  am
    19    16    19   2
    20    17    18   1
    21    18    20   1
    22    18    21   1
    23    20    23   1
    24    21    22  am
    25    21    33   2
    26    22    32   1
    27    23    24   1
    28    24    25   1
    29    25    26   1
    30    27    28   1
    31    28    29  ar
    32    29    30  ar
    33    29    31  ar
    34     1    34   1
    35     2    35   1
    36     5    36   1
    37     6    37   1
    38     7    38   1
    39     7    39   1
    40     8    40   1
    41     8    41   1
    42     9    42   1
    43     9    43   1
    44    10    44   1
    45    10    45   1
    46    11    46   1
    47    11    47   1
    48    12    48   1
    49    12    49   1
    50    13    50   1
    51    13    51   1
    52    14    52   1
    53    14    53   1
    54    15    54   1
    55    15    55   1
    56    17    56   1
    57    18    57   1
    58    20    58   1
    59    20    59   1
    60    22    60   1
    61    23    61   1
    62    23    62   1
    63    24    63   1
    64    24    64   1
    65    25    65   1
    66    25    66   1
    67    26    67   1
    68    26    68   1
    69    26    69   1
    70    27    70   1
    71    27    71   1
    72    28    72   1
    73    30    73   1
    74    30    74   1
    75    31    75   1
    76    31    76   1
    77    32    77   1
@<TRIPOS>SUBSTRUCTURE
     1  FA4      1

