@<TRIPOS>MOLECULE
2d1o_ligand_095
    77    77
SMALL
GAST_HUCK
****
This file was generated by PARSER (from files_GN.cpp)

@<TRIPOS>ATOM
      1 C1         29.2538    8.3074   16.8281 C.ar        1 FA4      -0.0755
      2 C2         30.0443    8.6343   15.7190 C.ar        1 FA4      -0.0668
      3 C3         31.1072    7.7916   15.3011 C.ar        1 FA4      -0.0377
      4 C4         31.3555    6.5794   16.0161 C.ar        1 FA4      -0.0050
      5 C5         30.5623    6.2956   17.1517 C.ar        1 FA4      -0.0635
      6 C6         29.5273    7.1473   17.5617 C.ar        1 FA4      -0.0754
      7 C7         31.9890    8.3043   14.2104 C.3         1 FA4      -0.0215
      8 C8         33.2324    9.0422   14.8027 C.3         1 FA4      -0.0443
      9 C9         34.0540    9.8951   13.7934 C.3         1 FA4      -0.0514
     10 C10        35.0356    9.0594   12.9167 C.3         1 FA4      -0.0529
     11 C11        35.9787    9.9375   12.0417 C.3         1 FA4      -0.0530
     12 C12        35.3695   10.4762   10.7091 C.3         1 FA4      -0.0529
     13 C13        34.7837    9.3488    9.7998 C.3         1 FA4      -0.0510
     14 C14        35.2559    9.3430    8.3103 C.3         1 FA4      -0.0361
     15 C15        36.6064   10.0444    7.9454 C.3         1 FA4       0.0374
     16 C16        37.8028    9.6996    8.6853 C.2         1 FA4       0.1782
     17 N17        38.9195   10.3971    8.4612 N.am        1 FA4      -0.2657
     18 C18        40.2151   10.1950    9.0573 C.3         1 FA4       0.1325
     19 O19        37.7952    8.8231    9.5499 O.2         1 FA4      -0.3969
     20 C20        40.3523   11.0498   10.3619 C.3         1 FA4      -0.0123
     21 C21        41.2519   10.4636    8.0719 C.2         1 FA4       0.2244
     22 N22        41.0799   10.1253    6.8017 N.am        1 FA4      -0.1623
     23 C23        39.3206   10.7288   11.4791 C.3         1 FA4      -0.0440
     24 C24        39.7034   11.3086   12.8768 C.3         1 FA4      -0.0124
     25 C25        39.8692   12.8482   12.9504 C.3         1 FA4      -0.0354
     26 N26        38.5884   13.5606   12.8666 N.4         1 FA4       0.2185
     27 C27        32.4131    5.5985   15.6269 C.3         1 FA4       0.0939
     28 N28        32.0683    4.8079   14.5188 N.pl3       1 FA4      -0.2620
     29 C29        31.1735    3.8928   14.4402 C.cat       1 FA4       0.2900
     30 N30        31.0945    3.2480   13.3413 N.pl3       1 FA4      -0.2847
     31 N31        30.3794    3.5527   15.3832 N.pl3       1 FA4      -0.2847
     32 O32        41.9909   10.3251    5.8873 O.3         1 FA4      -0.2717
     33 O33        42.3487   10.9371    8.3968 O.2         1 FA4      -0.3944
     34 H1         28.4966    8.9276   17.1176 H           1 FA4       0.0541
     35 H2         29.8491    9.5089   15.2204 H           1 FA4       0.0537
     36 H3         30.7325    5.4521   17.6987 H           1 FA4       0.0538
     37 H4         28.9753    6.9187   18.3862 H           1 FA4       0.0541
     38 H5         31.4433    9.0030   13.5601 H           1 FA4       0.0411
     39 H6         32.3276    7.4933   13.5565 H           1 FA4       0.0411
     40 H7         33.8982    8.3028   15.2671 H           1 FA4       0.0286
     41 H8         32.9003    9.7295   15.5937 H           1 FA4       0.0286
     42 H9         34.6397   10.6157   14.3764 H           1 FA4       0.0267
     43 H10        33.3753   10.4633   13.1519 H           1 FA4       0.0267
     44 H11        34.4732    8.3757   12.2669 H           1 FA4       0.0265
     45 H12        35.6667    8.4696   13.5898 H           1 FA4       0.0265
     46 H13        36.8680    9.3537   11.7813 H           1 FA4       0.0265
     47 H14        36.3396   10.7987   12.6160 H           1 FA4       0.0265
     48 H15        36.1961   10.9755   10.1654 H           1 FA4       0.0265
     49 H16        34.5985   11.2441   10.9148 H           1 FA4       0.0265
     50 H17        33.6945    9.4300    9.8145 H           1 FA4       0.0267
     51 H18        35.0260    8.3703   10.2153 H           1 FA4       0.0267
     52 H19        34.4718    9.8133    7.7028 H           1 FA4       0.0290
     53 H20        35.3182    8.2978    7.9844 H           1 FA4       0.0290
     54 H21        36.4578   11.1225    8.0206 H           1 FA4       0.0502
     55 H22        36.8237    9.8350    6.8936 H           1 FA4       0.0502
     56 H23        38.8640   11.1343    7.8213 H           1 FA4       0.1882
     57 H24        40.3411    9.1488    9.3471 H           1 FA4       0.0799
     58 H25        40.2649   12.1086   10.0981 H           1 FA4       0.0312
     59 H26        41.3559   10.8830   10.7660 H           1 FA4       0.0312
     60 H27        40.2482    9.6925    6.5439 H           1 FA4       0.2217
     61 H28        39.2440    9.6404   11.5748 H           1 FA4       0.0269
     62 H29        38.3367   11.1076   11.1854 H           1 FA4       0.0269
     63 H30        40.6392   10.8451   13.2063 H           1 FA4       0.0317
     64 H31        38.9348   11.0132   13.5970 H           1 FA4       0.0317
     65 H32        40.5242   13.1966   12.1500 H           1 FA4       0.0813
     66 H33        40.3320   13.1101   13.9058 H           1 FA4       0.0813
     67 H34        38.7626   14.5678   12.8783 H           1 FA4       0.1994
     68 H35        37.9993   13.3102   13.6655 H           1 FA4       0.1994
     69 H36        38.1069   13.3147   11.9995 H           1 FA4       0.1994
     70 H37        32.6723    4.9300   16.4567 H           1 FA4       0.0839
     71 H38        33.3318    6.1445   15.3953 H           1 FA4       0.0839
     72 H39        32.5970    4.9200   13.7554 H           1 FA4       0.2664
     73 H40        30.4815    2.5488   13.2417 H           1 FA4       0.2615
     74 H41        31.6867    3.4475   12.6455 H           1 FA4       0.2615
     75 H42        30.4177    3.9838   16.2124 H           1 FA4       0.2615
     76 H43        29.7607    2.8631   15.2425 H           1 FA4       0.2615
     77 H44        42.0779    9.4706    5.4010 H           1 FA4       0.2490
@<TRIPOS>BOND
     1     1     2  ar
     2     1     6  ar
     3     2     3  ar
     4     3     4  ar
     5     3     7   1
     6     4     5  ar
     7     4    27   1
     8     5     6  ar
     9     7     8   1
    10     8     9   1
    11     9    10   1
    12    10    11   1
    13    11    12   1
    14    12    13   1
    15    13    14   1
    16    14    15   1
    17    15    16   1
    18    16    17  am
    19    16    19   2
    20    17    18   1
    21    18    20   1
    22    18    21   1
    23    20    23   1
    24    21    22  am
    25    21    33   2
    26    22    32   1
    27    23    24   1
    28    24    25   1
    29    25    26   1
    30    27    28   1
    31    28    29  ar
    32    29    30  ar
    33    29    31  ar
    34     1    34   1
    35     2    35   1
    36     5    36   1
    37     6    37   1
    38     7    38   1
    39     7    39   1
    40     8    40   1
    41     8    41   1
    42     9    42   1
    43     9    43   1
    44    10    44   1
    45    10    45   1
    46    11    46   1
    47    11    47   1
    48    12    48   1
    49    12    49   1
    50    13    50   1
    51    13    51   1
    52    14    52   1
    53    14    53   1
    54    15    54   1
    55    15    55   1
    56    17    56   1
    57    18    57   1
    58    20    58   1
    59    20    59   1
    60    22    60   1
    61    23    61   1
    62    23    62   1
    63    24    63   1
    64    24    64   1
    65    25    65   1
    66    25    66   1
    67    26    67   1
    68    26    68   1
    69    26    69   1
    70    27    70   1
    71    27    71   1
    72    28    72   1
    73    30    73   1
    74    30    74   1
    75    31    75   1
    76    31    76   1
    77    32    77   1
@<TRIPOS>SUBSTRUCTURE
     1  FA4      1

