@<TRIPOS>MOLECULE
2d1o_ligand_047
    77    77
SMALL
GAST_HUCK
****
This file was generated by PARSER (from files_GN.cpp)

@<TRIPOS>ATOM
      1 C1         24.7802    5.3740   12.8936 C.ar        1 FA4      -0.0755
      2 C2         24.4373    4.6461   14.0424 C.ar        1 FA4      -0.0668
      3 C3         25.4264    3.9977   14.8298 C.ar        1 FA4      -0.0377
      4 C4         26.8058    4.1370   14.4671 C.ar        1 FA4      -0.0050
      5 C5         27.1250    4.9347   13.3396 C.ar        1 FA4      -0.0635
      6 C6         26.1295    5.5269   12.5486 C.ar        1 FA4      -0.0754
      7 C7         24.9453    3.2501   16.0304 C.3         1 FA4      -0.0215
      8 C8         24.7334    1.7241   15.8210 C.3         1 FA4      -0.0443
      9 C9         23.6793    1.3286   14.7452 C.3         1 FA4      -0.0514
     10 C10        24.2265    1.1730   13.2985 C.3         1 FA4      -0.0529
     11 C11        23.2253    0.5446   12.2921 C.3         1 FA4      -0.0530
     12 C12        21.8922    1.3201   12.0932 C.3         1 FA4      -0.0529
     13 C13        21.9296    2.4145   10.9847 C.3         1 FA4      -0.0510
     14 C14        21.3418    1.9678    9.6038 C.3         1 FA4      -0.0361
     15 C15        20.3457    2.9950    8.9869 C.3         1 FA4       0.0374
     16 C16        19.1646    3.1848    9.8146 C.2         1 FA4       0.1782
     17 N17        18.1250    2.3681    9.6796 N.am        1 FA4      -0.2657
     18 C18        16.9322    2.3593   10.4893 C.3         1 FA4       0.1325
     19 O19        19.1811    4.0665   10.6737 O.2         1 FA4      -0.3969
     20 C20        17.2027    1.7909   11.9312 C.3         1 FA4      -0.0123
     21 C21        15.8858    1.6222    9.7952 C.2         1 FA4       0.2244
     22 N22        15.7892    0.3016    9.8919 N.am        1 FA4      -0.1623
     23 C23        17.3100    2.8494   13.0653 C.3         1 FA4      -0.0440
     24 C24        15.9485    3.5366   13.3820 C.3         1 FA4      -0.0124
     25 C25        16.0949    4.6993   14.3891 C.3         1 FA4      -0.0354
     26 N26        14.9163    5.5785   14.3377 N.4         1 FA4       0.2185
     27 C27        27.9529    3.5805   15.2521 C.3         1 FA4       0.0939
     28 N28        29.0168    3.1623   14.4380 N.pl3       1 FA4      -0.2620
     29 C29        30.0613    3.8326   14.0886 C.cat       1 FA4       0.2900
     30 N30        30.9344    3.2540   13.3571 N.pl3       1 FA4      -0.2847
     31 N31        30.2957    5.0543   14.4095 N.pl3       1 FA4      -0.2847
     32 O32        14.7624   -0.3604    9.4239 O.3         1 FA4      -0.2717
     33 O33        15.0330    2.2369    9.1572 O.2         1 FA4      -0.3944
     34 H1         24.0522    5.8103   12.3204 H           1 FA4       0.0541
     35 H2         23.4423    4.5660   14.2783 H           1 FA4       0.0537
     36 H3         28.1006    5.0911   13.0741 H           1 FA4       0.0538
     37 H4         26.3889    6.0737   11.7220 H           1 FA4       0.0541
     38 H5         24.0029    3.6688   16.3970 H           1 FA4       0.0411
     39 H6         25.6497    3.4073   16.8479 H           1 FA4       0.0411
     40 H7         24.3789    1.3259   16.7774 H           1 FA4       0.0286
     41 H8         25.6856    1.2316   15.6141 H           1 FA4       0.0286
     42 H9         22.8643    2.0551   14.7648 H           1 FA4       0.0267
     43 H10        23.2474    0.3696   15.0357 H           1 FA4       0.0267
     44 H11        25.1079    0.5290   13.3303 H           1 FA4       0.0265
     45 H12        24.5484    2.1380   12.9152 H           1 FA4       0.0265
     46 H13        22.9892   -0.4700   12.6232 H           1 FA4       0.0265
     47 H14        23.7262    0.4536   11.3246 H           1 FA4       0.0265
     48 H15        21.6060    1.7888   13.0370 H           1 FA4       0.0265
     49 H16        21.0978    0.6015   11.8694 H           1 FA4       0.0265
     50 H17        22.9568    2.7630   10.8283 H           1 FA4       0.0267
     51 H18        21.3672    3.2737   11.3653 H           1 FA4       0.0267
     52 H19        20.8233    1.0039    9.6871 H           1 FA4       0.0290
     53 H20        22.1666    1.8221    8.8956 H           1 FA4       0.0290
     54 H21        20.0349    2.6552    7.9933 H           1 FA4       0.0502
     55 H22        20.8710    3.9464    8.8543 H           1 FA4       0.0502
     56 H23        18.1588    1.7292    8.9415 H           1 FA4       0.1882
     57 H24        16.5812    3.3927   10.5850 H           1 FA4       0.0799
     58 H25        18.1329    1.2119   11.9138 H           1 FA4       0.0312
     59 H26        16.4097    1.0914   12.2273 H           1 FA4       0.0312
     60 H27        16.4710   -0.1832   10.3930 H           1 FA4       0.2217
     61 H28        18.0538    3.6047   12.8019 H           1 FA4       0.0269
     62 H29        17.6558    2.3491   13.9759 H           1 FA4       0.0269
     63 H30        15.2538    2.7939   13.7973 H           1 FA4       0.0317
     64 H31        15.5048    3.9380   12.4677 H           1 FA4       0.0317
     65 H32        16.9746    5.3012   14.1493 H           1 FA4       0.0813
     66 H33        16.1949    4.3128   15.4047 H           1 FA4       0.0813
     67 H34        15.0196    6.3293   15.0246 H           1 FA4       0.1994
     68 H35        14.0748    5.0364   14.5525 H           1 FA4       0.1994
     69 H36        14.8287    5.9856   13.4013 H           1 FA4       0.1994
     70 H37        27.6586    2.6978   15.8195 H           1 FA4       0.0839
     71 H38        28.2461    4.3405   15.9844 H           1 FA4       0.0839
     72 H39        28.9632    2.2913   14.1040 H           1 FA4       0.2664
     73 H40        31.6962    3.7178   13.0874 H           1 FA4       0.2615
     74 H41        30.8132    2.3724   13.0859 H           1 FA4       0.2615
     75 H42        29.6932    5.5322   14.9326 H           1 FA4       0.2615
     76 H43        31.0750    5.4665   14.1070 H           1 FA4       0.2615
     77 H44        14.9531   -1.2974    9.6389 H           1 FA4       0.2490
@<TRIPOS>BOND
     1     1     2  ar
     2     1     6  ar
     3     2     3  ar
     4     3     4  ar
     5     3     7   1
     6     4     5  ar
     7     4    27   1
     8     5     6  ar
     9     7     8   1
    10     8     9   1
    11     9    10   1
    12    10    11   1
    13    11    12   1
    14    12    13   1
    15    13    14   1
    16    14    15   1
    17    15    16   1
    18    16    17  am
    19    16    19   2
    20    17    18   1
    21    18    20   1
    22    18    21   1
    23    20    23   1
    24    21    22  am
    25    21    33   2
    26    22    32   1
    27    23    24   1
    28    24    25   1
    29    25    26   1
    30    27    28   1
    31    28    29  ar
    32    29    30  ar
    33    29    31  ar
    34     1    34   1
    35     2    35   1
    36     5    36   1
    37     6    37   1
    38     7    38   1
    39     7    39   1
    40     8    40   1
    41     8    41   1
    42     9    42   1
    43     9    43   1
    44    10    44   1
    45    10    45   1
    46    11    46   1
    47    11    47   1
    48    12    48   1
    49    12    49   1
    50    13    50   1
    51    13    51   1
    52    14    52   1
    53    14    53   1
    54    15    54   1
    55    15    55   1
    56    17    56   1
    57    18    57   1
    58    20    58   1
    59    20    59   1
    60    22    60   1
    61    23    61   1
    62    23    62   1
    63    24    63   1
    64    24    64   1
    65    25    65   1
    66    25    66   1
    67    26    67   1
    68    26    68   1
    69    26    69   1
    70    27    70   1
    71    27    71   1
    72    28    72   1
    73    30    73   1
    74    30    74   1
    75    31    75   1
    76    31    76   1
    77    32    77   1
@<TRIPOS>SUBSTRUCTURE
     1  FA4      1

