@<TRIPOS>MOLECULE
2d1o_ligand_004
    77    77
SMALL
GAST_HUCK
****
This file was generated by PARSER (from files_GN.cpp)

@<TRIPOS>ATOM
      1 C1         22.6032    3.3083   15.9080 C.ar        1 FA4      -0.0755
      2 C2         23.7104    3.6664   15.1252 C.ar        1 FA4      -0.0668
      3 C3         23.6258    4.6762   14.1254 C.ar        1 FA4      -0.0377
      4 C4         22.4036    5.4202   14.0165 C.ar        1 FA4      -0.0050
      5 C5         21.2842    5.0063   14.7883 C.ar        1 FA4      -0.0635
      6 C6         21.3773    3.9618   15.7247 C.ar        1 FA4      -0.0754
      7 C7         24.8293    4.9486   13.2625 C.3         1 FA4      -0.0215
      8 C8         25.8536    3.7814   13.0163 C.3         1 FA4      -0.0443
      9 C9         27.1073    3.6540   13.9524 C.3         1 FA4      -0.0514
     10 C10        27.1353    4.3739   15.3535 C.3         1 FA4      -0.0529
     11 C11        28.0785    5.6227   15.4499 C.3         1 FA4      -0.0530
     12 C12        29.3297    5.4093   16.3544 C.3         1 FA4      -0.0529
     13 C13        30.3158    6.6127   16.3236 C.3         1 FA4      -0.0510
     14 C14        31.2571    6.6547   17.5638 C.3         1 FA4      -0.0361
     15 C15        32.1146    7.9475   17.6520 C.3         1 FA4       0.0374
     16 C16        33.1342    8.0470   16.6228 C.2         1 FA4       0.1782
     17 N17        33.0052    8.9219   15.6312 N.am        1 FA4      -0.2657
     18 C18        33.9225    9.1450   14.5462 C.3         1 FA4       0.1325
     19 O19        34.1027    7.2985   16.6951 O.2         1 FA4      -0.3969
     20 C20        34.1371   10.6831   14.3119 C.3         1 FA4      -0.0123
     21 C21        33.4712    8.4425   13.3436 C.2         1 FA4       0.2244
     22 N22        34.1240    7.3876   12.8745 N.am        1 FA4      -0.1623
     23 C23        32.8636   11.5395   14.0118 C.3         1 FA4      -0.0440
     24 C24        32.3137   12.3459   15.2327 C.3         1 FA4      -0.0124
     25 C25        30.7673   12.5252   15.2037 C.3         1 FA4      -0.0354
     26 N26        30.1009   11.4207   15.9116 N.4         1 FA4       0.2185
     27 C27        22.2489    6.5925   13.0976 C.3         1 FA4       0.0939
     28 N28        21.3156    7.5790   13.4705 N.pl3       1 FA4      -0.2620
     29 C29        21.3035    8.2737   14.5489 C.cat       1 FA4       0.2900
     30 N30        20.3883    9.1577   14.6708 N.pl3       1 FA4      -0.2847
     31 N31        22.1463    8.1515   15.5033 N.pl3       1 FA4      -0.2847
     32 O32        33.7306    6.7981   11.7786 O.3         1 FA4      -0.2717
     33 O33        32.4452    8.8108   12.7786 O.2         1 FA4      -0.3944
     34 H1         22.6797    2.5581   16.6011 H           1 FA4       0.0541
     35 H2         24.5838    3.1543   15.2962 H           1 FA4       0.0537
     36 H3         20.3839    5.4743   14.6852 H           1 FA4       0.0538
     37 H4         20.5613    3.6947   16.2757 H           1 FA4       0.0541
     38 H5         25.3475    5.8187   13.6581 H           1 FA4       0.0411
     39 H6         24.4721    5.2227   12.2686 H           1 FA4       0.0411
     40 H7         26.2529    3.8863   11.9950 H           1 FA4       0.0286
     41 H8         25.3282    2.8211   13.0006 H           1 FA4       0.0286
     42 H9         27.9891    3.9489   13.3728 H           1 FA4       0.0267
     43 H10        27.2392    2.5731   14.1336 H           1 FA4       0.0267
     44 H11        27.4577    3.6225   16.0920 H           1 FA4       0.0265
     45 H12        26.1197    4.6664   15.6420 H           1 FA4       0.0265
     46 H13        27.4965    6.4634   15.8368 H           1 FA4       0.0265
     47 H14        28.4378    5.8993   14.4547 H           1 FA4       0.0265
     48 H15        29.8640    4.5169   16.0077 H           1 FA4       0.0265
     49 H16        29.0052    5.2376   17.3867 H           1 FA4       0.0265
     50 H17        29.7363    7.5432   16.2833 H           1 FA4       0.0267
     51 H18        30.9215    6.5490   15.4137 H           1 FA4       0.0267
     52 H19        31.9123    5.7775   17.5534 H           1 FA4       0.0290
     53 H20        30.6356    6.5900   18.4626 H           1 FA4       0.0290
     54 H21        32.6110    7.9654   18.6247 H           1 FA4       0.0502
     55 H22        31.4452    8.8126   17.6262 H           1 FA4       0.0502
     56 H23        32.1767    9.4266   15.6081 H           1 FA4       0.1882
     57 H24        34.9132    8.7629   14.8276 H           1 FA4       0.0799
     58 H25        34.8320   10.8004   13.4710 H           1 FA4       0.0312
     59 H26        34.6440   11.1081   15.1872 H           1 FA4       0.0312
     60 H27        34.8904    7.0422   13.3710 H           1 FA4       0.2217
     61 H28        32.0734   10.8957   13.6076 H           1 FA4       0.0269
     62 H29        33.1085   12.2670   13.2257 H           1 FA4       0.0269
     63 H30        32.7769   13.3372   15.2260 H           1 FA4       0.0317
     64 H31        32.5888   11.8624   16.1759 H           1 FA4       0.0317
     65 H32        30.4008   12.5656   14.1712 H           1 FA4       0.0813
     66 H33        30.4950   13.4616   15.7014 H           1 FA4       0.0813
     67 H34        29.0856   11.4562   15.7620 H           1 FA4       0.1994
     68 H35        30.2969   11.5017   16.9155 H           1 FA4       0.1994
     69 H36        30.4566   10.5224   15.5684 H           1 FA4       0.1994
     70 H37        21.9447    6.2003   12.1205 H           1 FA4       0.0839
     71 H38        23.2098    7.1045   12.9647 H           1 FA4       0.0839
     72 H39        20.6517    7.7836   12.8419 H           1 FA4       0.2664
     73 H40        20.3404    9.6737   15.4479 H           1 FA4       0.2615
     74 H41        19.7619    9.2782   13.9864 H           1 FA4       0.2615
     75 H42        22.8338    7.5105   15.4575 H           1 FA4       0.2615
     76 H43        22.0570    8.6874   16.2682 H           1 FA4       0.2615
     77 H44        34.0584    5.8800   11.8491 H           1 FA4       0.2490
@<TRIPOS>BOND
     1     1     2  ar
     2     1     6  ar
     3     2     3  ar
     4     3     4  ar
     5     3     7   1
     6     4     5  ar
     7     4    27   1
     8     5     6  ar
     9     7     8   1
    10     8     9   1
    11     9    10   1
    12    10    11   1
    13    11    12   1
    14    12    13   1
    15    13    14   1
    16    14    15   1
    17    15    16   1
    18    16    17  am
    19    16    19   2
    20    17    18   1
    21    18    20   1
    22    18    21   1
    23    20    23   1
    24    21    22  am
    25    21    33   2
    26    22    32   1
    27    23    24   1
    28    24    25   1
    29    25    26   1
    30    27    28   1
    31    28    29  ar
    32    29    30  ar
    33    29    31  ar
    34     1    34   1
    35     2    35   1
    36     5    36   1
    37     6    37   1
    38     7    38   1
    39     7    39   1
    40     8    40   1
    41     8    41   1
    42     9    42   1
    43     9    43   1
    44    10    44   1
    45    10    45   1
    46    11    46   1
    47    11    47   1
    48    12    48   1
    49    12    49   1
    50    13    50   1
    51    13    51   1
    52    14    52   1
    53    14    53   1
    54    15    54   1
    55    15    55   1
    56    17    56   1
    57    18    57   1
    58    20    58   1
    59    20    59   1
    60    22    60   1
    61    23    61   1
    62    23    62   1
    63    24    63   1
    64    24    64   1
    65    25    65   1
    66    25    66   1
    67    26    67   1
    68    26    68   1
    69    26    69   1
    70    27    70   1
    71    27    71   1
    72    28    72   1
    73    30    73   1
    74    30    74   1
    75    31    75   1
    76    31    76   1
    77    32    77   1
@<TRIPOS>SUBSTRUCTURE
     1  FA4      1

