@<TRIPOS>MOLECULE
2d1o_ligand_079
    77    77
SMALL
GAST_HUCK
****
This file was generated by PARSER (from files_GN.cpp)

@<TRIPOS>ATOM
      1 C1         28.6564   12.3963   22.0591 C.ar        1 FA4      -0.0755
      2 C2         27.6697   11.5363   22.5642 C.ar        1 FA4      -0.0668
      3 C3         27.7361   11.0258   23.8882 C.ar        1 FA4      -0.0377
      4 C4         28.8206   11.4406   24.7312 C.ar        1 FA4      -0.0050
      5 C5         29.8033   12.3142   24.1944 C.ar        1 FA4      -0.0635
      6 C6         29.7294   12.7794   22.8735 C.ar        1 FA4      -0.0754
      7 C7         26.6330   10.1084   24.3171 C.3         1 FA4      -0.0215
      8 C8         26.6949    8.6685   23.7190 C.3         1 FA4      -0.0443
      9 C9         26.2005    8.4901   22.2459 C.3         1 FA4      -0.0514
     10 C10        27.3111    8.2360   21.1840 C.3         1 FA4      -0.0529
     11 C11        27.9959    6.8423   21.2793 C.3         1 FA4      -0.0530
     12 C12        29.5103    6.8109   20.9141 C.3         1 FA4      -0.0529
     13 C13        29.8879    6.7782   19.4042 C.3         1 FA4      -0.0510
     14 C14        29.8100    8.1248   18.6321 C.3         1 FA4      -0.0361
     15 C15        30.0922    7.9881   17.1063 C.3         1 FA4       0.0374
     16 C16        31.4926    7.8435   16.7203 C.2         1 FA4       0.1782
     17 N17        31.9577    8.4893   15.6536 N.am        1 FA4      -0.2657
     18 C18        33.2600    8.3850   15.0472 C.3         1 FA4       0.1325
     19 O19        32.2031    7.0539   17.3241 O.2         1 FA4      -0.3969
     20 C20        34.0878    9.7000   15.2206 C.3         1 FA4      -0.0123
     21 C21        33.0708    8.0500   13.6424 C.2         1 FA4       0.2244
     22 N22        33.8359    7.1529   13.0487 N.am        1 FA4      -0.1623
     23 C23        34.4577   10.0477   16.6943 C.3         1 FA4      -0.0440
     24 C24        33.3684   10.8444   17.4785 C.3         1 FA4      -0.0124
     25 C25        33.1899   10.3492   18.9364 C.3         1 FA4      -0.0354
     26 N26        32.1240   11.0895   19.6241 N.4         1 FA4       0.2185
     27 C27        28.9684   11.0286   26.1598 C.3         1 FA4       0.0939
     28 N28        29.2531    9.6631   26.2740 N.pl3       1 FA4      -0.2620
     29 C29        30.4053    9.0976   26.2268 C.cat       1 FA4       0.2900
     30 N30        30.4525    7.8283   26.3663 N.pl3       1 FA4      -0.2847
     31 N31        31.5160    9.7076   26.0560 N.pl3       1 FA4      -0.2847
     32 O32        33.6434    6.7930   11.8111 O.3         1 FA4      -0.2717
     33 O33        32.1636    8.5787   13.0006 O.2         1 FA4      -0.3944
     34 H1         28.5931   12.7409   21.0970 H           1 FA4       0.0541
     35 H2         26.8910   11.2842   21.9472 H           1 FA4       0.0537
     36 H3         30.5961   12.6183   24.7649 H           1 FA4       0.0538
     37 H4         30.4517   13.4083   22.5080 H           1 FA4       0.0541
     38 H5         25.6637   10.5594   24.0764 H           1 FA4       0.0411
     39 H6         26.6316   10.0059   25.4038 H           1 FA4       0.0411
     40 H7         26.0508    8.0433   24.3503 H           1 FA4       0.0286
     41 H8         27.7099    8.2826   23.8355 H           1 FA4       0.0286
     42 H9         25.6259    9.3770   21.9551 H           1 FA4       0.0267
     43 H10        25.5024    7.6471   22.2097 H           1 FA4       0.0267
     44 H11        28.0701    9.0172   21.2628 H           1 FA4       0.0265
     45 H12        26.8369    8.3221   20.2044 H           1 FA4       0.0265
     46 H13        27.4458    6.1326   20.6520 H           1 FA4       0.0265
     47 H14        27.9086    6.4869   22.3123 H           1 FA4       0.0265
     48 H15        29.9040    5.8872   21.3530 H           1 FA4       0.0265
     49 H16        30.0212    7.6424   21.4097 H           1 FA4       0.0265
     50 H17        29.2626    6.0335   18.9043 H           1 FA4       0.0267
     51 H18        30.9215    6.4306   19.3527 H           1 FA4       0.0267
     52 H19        30.5032    8.8493   19.0707 H           1 FA4       0.0290
     53 H20        28.7972    8.5223   18.7368 H           1 FA4       0.0290
     54 H21        29.6708    8.8712   16.6204 H           1 FA4       0.0502
     55 H22        29.5384    7.1310   16.7166 H           1 FA4       0.0502
     56 H23        31.3300    9.0801   15.2046 H           1 FA4       0.1882
     57 H24        33.8335    7.5843   15.5291 H           1 FA4       0.0799
     58 H25        33.5656   10.5462   14.7619 H           1 FA4       0.0312
     59 H26        35.0288    9.5660   14.6710 H           1 FA4       0.0312
     60 H27        34.5580    6.7455   13.5573 H           1 FA4       0.2217
     61 H28        35.3707   10.6554   16.6816 H           1 FA4       0.0269
     62 H29        34.7064    9.1170   17.2134 H           1 FA4       0.0269
     63 H30        32.4000   10.7717   16.9758 H           1 FA4       0.0317
     64 H31        33.6470   11.9047   17.4946 H           1 FA4       0.0317
     65 H32        34.1211   10.4760   19.4984 H           1 FA4       0.0813
     66 H33        32.9177    9.2896   18.9258 H           1 FA4       0.0813
     67 H34        31.9892   10.6909   20.5585 H           1 FA4       0.1994
     68 H35        31.2512   11.0127   19.0932 H           1 FA4       0.1994
     69 H36        32.3889   12.0754   19.7080 H           1 FA4       0.1994
     70 H37        28.0429   11.2443   26.6987 H           1 FA4       0.0839
     71 H38        29.7308   11.6205   26.6786 H           1 FA4       0.0839
     72 H39        28.5187    9.1001   26.4175 H           1 FA4       0.2664
     73 H40        31.2721    7.3846   26.3400 H           1 FA4       0.2615
     74 H41        29.6682    7.3393   26.4986 H           1 FA4       0.2615
     75 H42        31.5350   10.6368   25.9491 H           1 FA4       0.2615
     76 H43        32.3173    9.2214   26.0388 H           1 FA4       0.2615
     77 H44        33.9813    5.8779   11.7628 H           1 FA4       0.2490
@<TRIPOS>BOND
     1     1     2  ar
     2     1     6  ar
     3     2     3  ar
     4     3     4  ar
     5     3     7   1
     6     4     5  ar
     7     4    27   1
     8     5     6  ar
     9     7     8   1
    10     8     9   1
    11     9    10   1
    12    10    11   1
    13    11    12   1
    14    12    13   1
    15    13    14   1
    16    14    15   1
    17    15    16   1
    18    16    17  am
    19    16    19   2
    20    17    18   1
    21    18    20   1
    22    18    21   1
    23    20    23   1
    24    21    22  am
    25    21    33   2
    26    22    32   1
    27    23    24   1
    28    24    25   1
    29    25    26   1
    30    27    28   1
    31    28    29  ar
    32    29    30  ar
    33    29    31  ar
    34     1    34   1
    35     2    35   1
    36     5    36   1
    37     6    37   1
    38     7    38   1
    39     7    39   1
    40     8    40   1
    41     8    41   1
    42     9    42   1
    43     9    43   1
    44    10    44   1
    45    10    45   1
    46    11    46   1
    47    11    47   1
    48    12    48   1
    49    12    49   1
    50    13    50   1
    51    13    51   1
    52    14    52   1
    53    14    53   1
    54    15    54   1
    55    15    55   1
    56    17    56   1
    57    18    57   1
    58    20    58   1
    59    20    59   1
    60    22    60   1
    61    23    61   1
    62    23    62   1
    63    24    63   1
    64    24    64   1
    65    25    65   1
    66    25    66   1
    67    26    67   1
    68    26    68   1
    69    26    69   1
    70    27    70   1
    71    27    71   1
    72    28    72   1
    73    30    73   1
    74    30    74   1
    75    31    75   1
    76    31    76   1
    77    32    77   1
@<TRIPOS>SUBSTRUCTURE
     1  FA4      1

