@<TRIPOS>MOLECULE
2d1o_ligand_035
    77    77
SMALL
GAST_HUCK
****
This file was generated by PARSER (from files_GN.cpp)

@<TRIPOS>ATOM
      1 C1         26.1099    9.9183   22.4870 C.ar        1 FA4      -0.0755
      2 C2         27.1865    9.2039   23.0326 C.ar        1 FA4      -0.0668
      3 C3         28.5332    9.5141   22.6984 C.ar        1 FA4      -0.0377
      4 C4         28.7832   10.6512   21.8651 C.ar        1 FA4      -0.0050
      5 C5         27.6756   11.3449   21.3057 C.ar        1 FA4      -0.0635
      6 C6         26.3548   10.9771   21.6064 C.ar        1 FA4      -0.0754
      7 C7         29.5971    8.6479   23.3074 C.3         1 FA4      -0.0215
      8 C8         29.4240    7.1077   23.0937 C.3         1 FA4      -0.0443
      9 C9         30.1513    6.4748   21.8758 C.3         1 FA4      -0.0514
     10 C10        30.1760    7.2481   20.5315 C.3         1 FA4      -0.0529
     11 C11        28.8153    7.4213   19.8034 C.3         1 FA4      -0.0530
     12 C12        28.8389    8.5123   18.6848 C.3         1 FA4      -0.0529
     13 C13        29.1523    8.0268   17.2354 C.3         1 FA4      -0.0510
     14 C14        30.4734    7.2331   17.0611 C.3         1 FA4      -0.0361
     15 C15        31.7649    7.9449   17.5517 C.3         1 FA4       0.0374
     16 C16        32.8297    8.0125   16.5586 C.2         1 FA4       0.1782
     17 N17        32.8584    8.9886   15.6620 N.am        1 FA4      -0.2657
     18 C18        33.8079    9.1555   14.5939 C.3         1 FA4       0.1325
     19 O19        33.7112    7.1514   16.6042 O.2         1 FA4      -0.3969
     20 C20        34.0182   10.6805   14.3078 C.3         1 FA4      -0.0123
     21 C21        33.3331    8.4269   13.4268 C.2         1 FA4       0.2244
     22 N22        33.9725    7.3713   12.9584 N.am        1 FA4      -0.1623
     23 C23        34.7797   10.9647   12.9823 C.3         1 FA4      -0.0440
     24 C24        34.6582   12.4357   12.4965 C.3         1 FA4      -0.0124
     25 C25        34.8798   12.5775   10.9676 C.3         1 FA4      -0.0354
     26 N26        35.5174   13.8535   10.6207 N.4         1 FA4       0.2185
     27 C27        30.1493   11.1893   21.5667 C.3         1 FA4       0.0939
     28 N28        30.7379   11.8929   22.6217 N.pl3       1 FA4      -0.2620
     29 C29        30.5111   13.0939   23.0067 C.cat       1 FA4       0.2900
     30 N30        31.1961   13.5215   23.9956 N.pl3       1 FA4      -0.2847
     31 N31        29.6594   13.8859   22.4774 N.pl3       1 FA4      -0.2847
     32 O32        33.5968    6.7929   11.8563 O.3         1 FA4      -0.2717
     33 O33        32.3297    8.8313   12.8440 O.2         1 FA4      -0.3944
     34 H1         25.1503    9.6653   22.7308 H           1 FA4       0.0541
     35 H2         26.9718    8.4443   23.6814 H           1 FA4       0.0537
     36 H3         27.8192   12.1442   20.6857 H           1 FA4       0.0538
     37 H4         25.5727   11.4939   21.1952 H           1 FA4       0.0541
     38 H5         29.5799    8.8507   24.3827 H           1 FA4       0.0411
     39 H6         30.5950    8.9209   22.9689 H           1 FA4       0.0411
     40 H7         28.3723    6.8282   23.0449 H           1 FA4       0.0286
     41 H8         29.8244    6.6097   23.9806 H           1 FA4       0.0286
     42 H9         29.7064    5.4915   21.6956 H           1 FA4       0.0267
     43 H10        31.1923    6.3110   22.1632 H           1 FA4       0.0267
     44 H11        30.8530    6.7101   19.8701 H           1 FA4       0.0265
     45 H12        30.6231    8.2266   20.6986 H           1 FA4       0.0265
     46 H13        28.0650    7.7064   20.5452 H           1 FA4       0.0265
     47 H14        28.4951    6.4624   19.3845 H           1 FA4       0.0265
     48 H15        29.5579    9.2937   18.9523 H           1 FA4       0.0265
     49 H16        27.8561    8.9867   18.6529 H           1 FA4       0.0265
     50 H17        29.1702    8.9011   16.5710 H           1 FA4       0.0267
     51 H18        28.3201    7.3927   16.9033 H           1 FA4       0.0267
     52 H19        30.5828    6.9697   16.0014 H           1 FA4       0.0290
     53 H20        30.3516    6.2825   17.6021 H           1 FA4       0.0290
     54 H21        32.1179    7.3885   18.4305 H           1 FA4       0.0502
     55 H22        31.5314    8.9581   17.8937 H           1 FA4       0.0502
     56 H23        32.1496    9.6567   15.7297 H           1 FA4       0.1882
     57 H24        34.7807    8.7582   14.9177 H           1 FA4       0.0799
     58 H25        34.5830   11.1213   15.1345 H           1 FA4       0.0312
     59 H26        33.0414   11.1750   14.2759 H           1 FA4       0.0312
     60 H27        34.7288    7.0142   13.4523 H           1 FA4       0.2217
     61 H28        34.3848   10.3063   12.2060 H           1 FA4       0.0269
     62 H29        35.8356   10.7202   13.1226 H           1 FA4       0.0269
     63 H30        35.3930   13.0470   13.0274 H           1 FA4       0.0317
     64 H31        33.6614   12.8153   12.7359 H           1 FA4       0.0317
     65 H32        33.9180   12.5336   10.4528 H           1 FA4       0.0813
     66 H33        35.5080   11.7611   10.6053 H           1 FA4       0.0813
     67 H34        35.5999   13.9207    9.6047 H           1 FA4       0.1994
     68 H35        36.4465   13.9009   11.0397 H           1 FA4       0.1994
     69 H36        34.9477   14.6300   10.9617 H           1 FA4       0.1994
     70 H37        30.1539   11.8471   20.6941 H           1 FA4       0.0839
     71 H38        30.8028   10.3580   21.3158 H           1 FA4       0.0839
     72 H39        31.3999   11.4330   23.0980 H           1 FA4       0.2664
     73 H40        31.0743   14.3913   24.3184 H           1 FA4       0.2615
     74 H41        31.8274   12.9579   24.3953 H           1 FA4       0.2615
     75 H42        29.1414   13.6071   21.7511 H           1 FA4       0.2615
     76 H43        29.5502   14.7510   22.8166 H           1 FA4       0.2615
     77 H44        33.9599    5.8839   11.8928 H           1 FA4       0.2490
@<TRIPOS>BOND
     1     1     2  ar
     2     1     6  ar
     3     2     3  ar
     4     3     4  ar
     5     3     7   1
     6     4     5  ar
     7     4    27   1
     8     5     6  ar
     9     7     8   1
    10     8     9   1
    11     9    10   1
    12    10    11   1
    13    11    12   1
    14    12    13   1
    15    13    14   1
    16    14    15   1
    17    15    16   1
    18    16    17  am
    19    16    19   2
    20    17    18   1
    21    18    20   1
    22    18    21   1
    23    20    23   1
    24    21    22  am
    25    21    33   2
    26    22    32   1
    27    23    24   1
    28    24    25   1
    29    25    26   1
    30    27    28   1
    31    28    29  ar
    32    29    30  ar
    33    29    31  ar
    34     1    34   1
    35     2    35   1
    36     5    36   1
    37     6    37   1
    38     7    38   1
    39     7    39   1
    40     8    40   1
    41     8    41   1
    42     9    42   1
    43     9    43   1
    44    10    44   1
    45    10    45   1
    46    11    46   1
    47    11    47   1
    48    12    48   1
    49    12    49   1
    50    13    50   1
    51    13    51   1
    52    14    52   1
    53    14    53   1
    54    15    54   1
    55    15    55   1
    56    17    56   1
    57    18    57   1
    58    20    58   1
    59    20    59   1
    60    22    60   1
    61    23    61   1
    62    23    62   1
    63    24    63   1
    64    24    64   1
    65    25    65   1
    66    25    66   1
    67    26    67   1
    68    26    68   1
    69    26    69   1
    70    27    70   1
    71    27    71   1
    72    28    72   1
    73    30    73   1
    74    30    74   1
    75    31    75   1
    76    31    76   1
    77    32    77   1
@<TRIPOS>SUBSTRUCTURE
     1  FA4      1

