@<TRIPOS>MOLECULE
2d1o_ligand_052
    77    77
SMALL
GAST_HUCK
****
This file was generated by PARSER (from files_GN.cpp)

@<TRIPOS>ATOM
      1 C1         27.1621    5.8626   12.9993 C.ar        1 FA4      -0.0755
      2 C2         28.2608    5.2411   13.6203 C.ar        1 FA4      -0.0668
      3 C3         28.1140    3.9945   14.2800 C.ar        1 FA4      -0.0377
      4 C4         26.8245    3.3578   14.2961 C.ar        1 FA4      -0.0050
      5 C5         25.7676    3.9636   13.5669 C.ar        1 FA4      -0.0635
      6 C6         25.9218    5.2079   12.9428 C.ar        1 FA4      -0.0754
      7 C7         29.3609    3.3858   14.8452 C.3         1 FA4      -0.0215
      8 C8         30.1009    4.2051   15.9429 C.3         1 FA4      -0.0443
      9 C9         30.7998    5.5063   15.4491 C.3         1 FA4      -0.0514
     10 C10        32.1534    5.7739   16.1739 C.3         1 FA4      -0.0529
     11 C11        32.7887    7.1613   15.8730 C.3         1 FA4      -0.0530
     12 C12        32.2464    8.3284   16.7472 C.3         1 FA4      -0.0529
     13 C13        32.8666    9.7206   16.4075 C.3         1 FA4      -0.0510
     14 C14        34.2604   10.0159   17.0484 C.3         1 FA4      -0.0361
     15 C15        35.2456   10.7994   16.1239 C.3         1 FA4       0.0374
     16 C16        35.8234    9.9686   15.0830 C.2         1 FA4       0.1782
     17 N17        35.4375   10.1062   13.8176 N.am        1 FA4      -0.2657
     18 C18        35.8232    9.2922   12.6979 C.3         1 FA4       0.1325
     19 O19        36.6658    9.1390   15.4092 O.2         1 FA4      -0.3969
     20 C20        36.4999   10.1382   11.5751 C.3         1 FA4      -0.0123
     21 C21        34.6285    8.6114   12.2068 C.2         1 FA4       0.2244
     22 N22        34.2970    7.4171   12.6648 N.am        1 FA4      -0.1623
     23 C23        38.0462   10.2974   11.6902 C.3         1 FA4      -0.0440
     24 C24        38.5431   11.4059   12.6503 C.3         1 FA4      -0.0124
     25 C25        39.9101   11.0503   13.2847 C.3         1 FA4      -0.0354
     26 N26        40.2493   11.9636   14.3782 N.4         1 FA4       0.2185
     27 C27        26.5935    2.0775   15.0398 C.3         1 FA4       0.0939
     28 N28        25.2722    1.6563   15.2761 N.pl3       1 FA4      -0.2620
     29 C29        24.3248    2.3087   15.8495 C.cat       1 FA4       0.2900
     30 N30        23.1891    1.7262   15.9394 N.pl3       1 FA4      -0.2847
     31 N31        24.4367    3.4963   16.3164 N.pl3       1 FA4      -0.2847
     32 O32        33.2313    6.7826   12.2603 O.3         1 FA4      -0.2717
     33 O33        33.9329    9.1351   11.3437 O.2         1 FA4      -0.3944
     34 H1         27.2744    6.7718   12.5451 H           1 FA4       0.0541
     35 H2         29.1858    5.6994   13.5663 H           1 FA4       0.0537
     36 H3         24.8594    3.5018   13.4842 H           1 FA4       0.0538
     37 H4         25.1346    5.6280   12.4416 H           1 FA4       0.0541
     38 H5         30.0571    3.1854   14.0240 H           1 FA4       0.0411
     39 H6         29.1578    2.4061   15.2809 H           1 FA4       0.0411
     40 H7         30.8578    3.5385   16.3747 H           1 FA4       0.0286
     41 H8         29.4030    4.4589   16.7480 H           1 FA4       0.0286
     42 H9         30.1323    6.3526   15.6247 H           1 FA4       0.0267
     43 H10        30.9679    5.4449   14.3629 H           1 FA4       0.0267
     44 H11        32.8682    5.0128   15.8456 H           1 FA4       0.0265
     45 H12        32.0210    5.6635   17.2583 H           1 FA4       0.0265
     46 H13        32.6428    7.4032   14.8173 H           1 FA4       0.0265
     47 H14        33.8675    7.0726   16.0420 H           1 FA4       0.0265
     48 H15        32.4213    8.1085   17.8039 H           1 FA4       0.0265
     49 H16        31.1673    8.4151   16.5987 H           1 FA4       0.0265
     50 H17        32.1614   10.4902   16.7447 H           1 FA4       0.0267
     51 H18        32.9139    9.8090   15.3186 H           1 FA4       0.0267
     52 H19        34.7477    9.0910   17.3727 H           1 FA4       0.0290
     53 H20        34.1129   10.6152   17.9557 H           1 FA4       0.0290
     54 H21        36.0615   11.2046   16.7327 H           1 FA4       0.0502
     55 H22        34.7133   11.6544   15.6951 H           1 FA4       0.0502
     56 H23        34.7812   10.8002   13.6384 H           1 FA4       0.1882
     57 H24        36.5499    8.5299   13.0054 H           1 FA4       0.0799
     58 H25        36.0354   11.1283   11.5165 H           1 FA4       0.0312
     59 H26        36.3116    9.6384   10.6176 H           1 FA4       0.0312
     60 H27        34.8641    6.9972   13.3307 H           1 FA4       0.2217
     61 H28        38.4254   10.5315   10.6902 H           1 FA4       0.0269
     62 H29        38.4807    9.3386   11.9841 H           1 FA4       0.0269
     63 H30        37.8225   11.5599   13.4543 H           1 FA4       0.0317
     64 H31        38.6433   12.3429   12.0942 H           1 FA4       0.0317
     65 H32        40.7026   11.1051   12.5341 H           1 FA4       0.0813
     66 H33        39.8770   10.0309   13.6790 H           1 FA4       0.0813
     67 H34        41.1261   11.6663   14.8153 H           1 FA4       0.1994
     68 H35        39.5055   11.9595   15.0819 H           1 FA4       0.1994
     69 H36        40.3628   12.9140   14.0122 H           1 FA4       0.1994
     70 H37        27.1013    2.1340   16.0084 H           1 FA4       0.0839
     71 H38        27.0646    1.2807   14.4535 H           1 FA4       0.0839
     72 H39        25.0646    0.7987   14.9776 H           1 FA4       0.2664
     73 H40        22.4668    2.1691   16.3424 H           1 FA4       0.2615
     74 H41        23.0772    0.8626   15.6001 H           1 FA4       0.2615
     75 H42        25.2558    3.9421   16.2592 H           1 FA4       0.2615
     76 H43        23.6831    3.9234   16.6759 H           1 FA4       0.2615
     77 H44        33.3495    5.8626   12.5687 H           1 FA4       0.2490
@<TRIPOS>BOND
     1     1     2  ar
     2     1     6  ar
     3     2     3  ar
     4     3     4  ar
     5     3     7   1
     6     4     5  ar
     7     4    27   1
     8     5     6  ar
     9     7     8   1
    10     8     9   1
    11     9    10   1
    12    10    11   1
    13    11    12   1
    14    12    13   1
    15    13    14   1
    16    14    15   1
    17    15    16   1
    18    16    17  am
    19    16    19   2
    20    17    18   1
    21    18    20   1
    22    18    21   1
    23    20    23   1
    24    21    22  am
    25    21    33   2
    26    22    32   1
    27    23    24   1
    28    24    25   1
    29    25    26   1
    30    27    28   1
    31    28    29  ar
    32    29    30  ar
    33    29    31  ar
    34     1    34   1
    35     2    35   1
    36     5    36   1
    37     6    37   1
    38     7    38   1
    39     7    39   1
    40     8    40   1
    41     8    41   1
    42     9    42   1
    43     9    43   1
    44    10    44   1
    45    10    45   1
    46    11    46   1
    47    11    47   1
    48    12    48   1
    49    12    49   1
    50    13    50   1
    51    13    51   1
    52    14    52   1
    53    14    53   1
    54    15    54   1
    55    15    55   1
    56    17    56   1
    57    18    57   1
    58    20    58   1
    59    20    59   1
    60    22    60   1
    61    23    61   1
    62    23    62   1
    63    24    63   1
    64    24    64   1
    65    25    65   1
    66    25    66   1
    67    26    67   1
    68    26    68   1
    69    26    69   1
    70    27    70   1
    71    27    71   1
    72    28    72   1
    73    30    73   1
    74    30    74   1
    75    31    75   1
    76    31    76   1
    77    32    77   1
@<TRIPOS>SUBSTRUCTURE
     1  FA4      1

