@<TRIPOS>MOLECULE
2d1o_ligand_037
    77    77
SMALL
GAST_HUCK
****
This file was generated by PARSER (from files_GN.cpp)

@<TRIPOS>ATOM
      1 C1         29.1379    3.0414   16.6986 C.ar        1 FA4      -0.0755
      2 C2         29.5766    4.3720   16.6058 C.ar        1 FA4      -0.0668
      3 C3         29.1009    5.2367   15.5877 C.ar        1 FA4      -0.0377
      4 C4         28.1482    4.7371   14.6423 C.ar        1 FA4      -0.0050
      5 C5         27.7696    3.3704   14.7193 C.ar        1 FA4      -0.0635
      6 C6         28.2549    2.5328   15.7391 C.ar        1 FA4      -0.0754
      7 C7         29.6948    6.6134   15.5480 C.3         1 FA4      -0.0215
      8 C8         29.0891    7.6246   16.5582 C.3         1 FA4      -0.0443
      9 C9         29.3528    7.3257   18.0621 C.3         1 FA4      -0.0514
     10 C10        28.9967    8.5171   19.0017 C.3         1 FA4      -0.0529
     11 C11        30.1946    9.3299   19.5717 C.3         1 FA4      -0.0530
     12 C12        31.1243   10.0576   18.5495 C.3         1 FA4      -0.0529
     13 C13        32.2807    9.1949   17.9408 C.3         1 FA4      -0.0510
     14 C14        33.6838    9.8619   17.9799 C.3         1 FA4      -0.0361
     15 C15        33.8926   11.0781   17.0231 C.3         1 FA4       0.0374
     16 C16        34.7166   10.7631   15.8674 C.2         1 FA4       0.1782
     17 N17        34.2071   10.0394   14.8786 N.am        1 FA4      -0.2657
     18 C18        34.8949    9.5933   13.6956 C.3         1 FA4       0.1325
     19 O19        35.8855   11.1339   15.8490 O.2         1 FA4      -0.3969
     20 C20        35.4515   10.7403   12.7828 C.3         1 FA4      -0.0123
     21 C21        34.0038    8.7175   12.9406 C.2         1 FA4       0.2244
     22 N22        34.3151    7.4576   12.6958 N.am        1 FA4      -0.1623
     23 C23        34.5518   12.0051   12.6596 C.3         1 FA4      -0.0440
     24 C24        34.7753   12.8016   11.3445 C.3         1 FA4      -0.0124
     25 C25        34.1348   14.2116   11.3460 C.3         1 FA4      -0.0354
     26 N26        32.6967   14.1859   11.6396 N.4         1 FA4       0.2185
     27 C27        27.5742    5.6170   13.5759 C.3         1 FA4       0.0939
     28 N28        26.5476    5.1294   12.7546 N.pl3       1 FA4      -0.2620
     29 C29        25.3467    4.8196   13.0888 C.cat       1 FA4       0.2900
     30 N30        24.5667    4.4148   12.1703 N.pl3       1 FA4      -0.2847
     31 N31        24.8826    4.8875   14.2807 N.pl3       1 FA4      -0.2847
     32 O32        33.5519    6.7139   11.9420 O.3         1 FA4      -0.2717
     33 O33        32.9553    9.1625   12.4947 O.2         1 FA4      -0.3944
     34 H1         29.4908    2.4416   17.4457 H           1 FA4       0.0541
     35 H2         30.2676    4.7005   17.2833 H           1 FA4       0.0537
     36 H3         27.1388    2.9583   14.0313 H           1 FA4       0.0538
     37 H4         27.9686    1.5516   15.7768 H           1 FA4       0.0541
     38 H5         29.5904    7.0500   14.5534 H           1 FA4       0.0411
     39 H6         30.7750    6.5509   15.7165 H           1 FA4       0.0411
     40 H7         28.0079    7.6738   16.4031 H           1 FA4       0.0286
     41 H8         29.5006    8.6096   16.3203 H           1 FA4       0.0286
     42 H9         30.3934    7.0307   18.2090 H           1 FA4       0.0267
     43 H10        28.7408    6.4641   18.3449 H           1 FA4       0.0267
     44 H11        28.4484    8.1137   19.8611 H           1 FA4       0.0265
     45 H12        28.3077    9.2058   18.4989 H           1 FA4       0.0265
     46 H13        30.7931    8.6790   20.2154 H           1 FA4       0.0265
     47 H14        29.7635   10.0950   20.2267 H           1 FA4       0.0265
     48 H15        31.5601   10.9127   19.0734 H           1 FA4       0.0265
     49 H16        30.5145   10.4714   17.7416 H           1 FA4       0.0265
     50 H17        32.0376    8.9346   16.9078 H           1 FA4       0.0267
     51 H18        32.3716    8.2581   18.4932 H           1 FA4       0.0267
     52 H19        34.4265    9.0884   17.7594 H           1 FA4       0.0290
     53 H20        33.8766   10.1836   19.0074 H           1 FA4       0.0290
     54 H21        34.3687   11.8862   17.5911 H           1 FA4       0.0502
     55 H22        32.9316   11.4727   16.6797 H           1 FA4       0.0502
     56 H23        33.2810    9.7707   14.9737 H           1 FA4       0.1882
     57 H24        35.7568    9.0010   14.0282 H           1 FA4       0.0799
     58 H25        35.6530   10.3356   11.7855 H           1 FA4       0.0312
     59 H26        36.4204   11.0632   13.1758 H           1 FA4       0.0312
     60 H27        35.1250    7.0766   13.0762 H           1 FA4       0.2217
     61 H28        34.7534   12.6598   13.5135 H           1 FA4       0.0269
     62 H29        33.4980   11.7219   12.7089 H           1 FA4       0.0269
     63 H30        34.3636   12.2299   10.5078 H           1 FA4       0.0317
     64 H31        35.8478   12.9209   11.1710 H           1 FA4       0.0317
     65 H32        34.2747   14.6720   10.3658 H           1 FA4       0.0813
     66 H33        34.6283   14.8402   12.0894 H           1 FA4       0.0813
     67 H34        32.3120   15.1294   11.5501 H           1 FA4       0.1994
     68 H35        32.5483   13.8538   12.5955 H           1 FA4       0.1994
     69 H36        32.2135   13.5601   10.9898 H           1 FA4       0.1994
     70 H37        28.3949    5.8810   12.9098 H           1 FA4       0.0839
     71 H38        27.2178    6.5398   14.0363 H           1 FA4       0.0839
     72 H39        26.7474    5.0598   11.8372 H           1 FA4       0.2664
     73 H40        23.6848    4.1673   12.3644 H           1 FA4       0.2615
     74 H41        24.8723    4.3704   11.2877 H           1 FA4       0.2615
     75 H42        25.4227    5.1837   14.9787 H           1 FA4       0.2615
     76 H43        23.9991    4.6362   14.4480 H           1 FA4       0.2615
     77 H44        33.9540    5.8187   11.9622 H           1 FA4       0.2490
@<TRIPOS>BOND
     1     1     2  ar
     2     1     6  ar
     3     2     3  ar
     4     3     4  ar
     5     3     7   1
     6     4     5  ar
     7     4    27   1
     8     5     6  ar
     9     7     8   1
    10     8     9   1
    11     9    10   1
    12    10    11   1
    13    11    12   1
    14    12    13   1
    15    13    14   1
    16    14    15   1
    17    15    16   1
    18    16    17  am
    19    16    19   2
    20    17    18   1
    21    18    20   1
    22    18    21   1
    23    20    23   1
    24    21    22  am
    25    21    33   2
    26    22    32   1
    27    23    24   1
    28    24    25   1
    29    25    26   1
    30    27    28   1
    31    28    29  ar
    32    29    30  ar
    33    29    31  ar
    34     1    34   1
    35     2    35   1
    36     5    36   1
    37     6    37   1
    38     7    38   1
    39     7    39   1
    40     8    40   1
    41     8    41   1
    42     9    42   1
    43     9    43   1
    44    10    44   1
    45    10    45   1
    46    11    46   1
    47    11    47   1
    48    12    48   1
    49    12    49   1
    50    13    50   1
    51    13    51   1
    52    14    52   1
    53    14    53   1
    54    15    54   1
    55    15    55   1
    56    17    56   1
    57    18    57   1
    58    20    58   1
    59    20    59   1
    60    22    60   1
    61    23    61   1
    62    23    62   1
    63    24    63   1
    64    24    64   1
    65    25    65   1
    66    25    66   1
    67    26    67   1
    68    26    68   1
    69    26    69   1
    70    27    70   1
    71    27    71   1
    72    28    72   1
    73    30    73   1
    74    30    74   1
    75    31    75   1
    76    31    76   1
    77    32    77   1
@<TRIPOS>SUBSTRUCTURE
     1  FA4      1

