@<TRIPOS>MOLECULE
2d1o_ligand_027
    77    77
SMALL
GAST_HUCK
****
This file was generated by PARSER (from files_GN.cpp)

@<TRIPOS>ATOM
      1 C1         36.6804   12.0317   16.8457 C.ar        1 FA4      -0.0755
      2 C2         35.4650   12.1043   17.5426 C.ar        1 FA4      -0.0668
      3 C3         35.3820   12.6888   18.8350 C.ar        1 FA4      -0.0377
      4 C4         36.5708   13.2390   19.4140 C.ar        1 FA4      -0.0050
      5 C5         37.7881   13.1539   18.6901 C.ar        1 FA4      -0.0635
      6 C6         37.8433   12.5540   17.4208 C.ar        1 FA4      -0.0754
      7 C7         34.0264   12.6854   19.4727 C.3         1 FA4      -0.0215
      8 C8         33.5602   11.2623   19.9076 C.3         1 FA4      -0.0443
      9 C9         32.0217   11.1121   20.0712 C.3         1 FA4      -0.0514
     10 C10        31.2176   11.2184   18.7377 C.3         1 FA4      -0.0529
     11 C11        29.9476   10.3216   18.6385 C.3         1 FA4      -0.0530
     12 C12        30.1763    8.7817   18.6226 C.3         1 FA4      -0.0529
     13 C13        30.7920    8.2113   17.3140 C.3         1 FA4      -0.0510
     14 C14        31.3346    6.7622   17.4815 C.3         1 FA4      -0.0361
     15 C15        32.0675    6.2054   16.2287 C.3         1 FA4       0.0374
     16 C16        33.1701    7.0402   15.7727 C.2         1 FA4       0.1782
     17 N17        32.9920    7.8429   14.7316 N.am        1 FA4      -0.2657
     18 C18        33.9273    8.7493   14.1290 C.3         1 FA4       0.1325
     19 O19        34.2236    7.0246   16.3966 O.2         1 FA4      -0.3969
     20 C20        33.2786   10.1704   14.1218 C.3         1 FA4      -0.0123
     21 C21        34.2068    8.2177   12.8011 C.2         1 FA4       0.2244
     22 N22        35.2274    7.4053   12.5898 N.am        1 FA4      -0.1623
     23 C23        34.0467   11.2681   13.3286 C.3         1 FA4      -0.0440
     24 C24        33.2481   12.6019   13.2392 C.3         1 FA4      -0.0124
     25 C25        33.6502   13.4866   12.0322 C.3         1 FA4      -0.0354
     26 N26        32.5128   14.2837   11.5540 N.4         1 FA4       0.2185
     27 C27        36.6092   13.8909   20.7571 C.3         1 FA4       0.0939
     28 N28        36.6688   12.9295   21.7806 N.pl3       1 FA4      -0.2620
     29 C29        36.6037   13.1375   23.0373 C.cat       1 FA4       0.2900
     30 N30        36.7855   12.1335   23.8069 N.pl3       1 FA4      -0.2847
     31 N31        36.3743   14.2700   23.5884 N.pl3       1 FA4      -0.2847
     32 O32        35.4331    6.8142   11.4434 O.3         1 FA4      -0.2717
     33 O33        33.4006    8.4038   11.9030 O.2         1 FA4      -0.3944
     34 H1         36.7237   11.5879   15.9246 H           1 FA4       0.0541
     35 H2         34.6340   11.7173   17.0948 H           1 FA4       0.0537
     36 H3         38.6549   13.5253   19.0846 H           1 FA4       0.0538
     37 H4         38.7369   12.4961   16.9266 H           1 FA4       0.0541
     38 H5         33.3134   13.1222   18.7652 H           1 FA4       0.0411
     39 H6         33.9842   13.3169   20.3577 H           1 FA4       0.0411
     40 H7         34.0372   11.0280   20.8633 H           1 FA4       0.0286
     41 H8         33.8971   10.5054   19.1957 H           1 FA4       0.0286
     42 H9         31.6639   11.8684   20.7768 H           1 FA4       0.0267
     43 H10        31.8433   10.1437   20.5415 H           1 FA4       0.0267
     44 H11        31.8592   11.0045   17.8847 H           1 FA4       0.0265
     45 H12        30.8981   12.2559   18.6199 H           1 FA4       0.0265
     46 H13        29.4075   10.5919   17.7270 H           1 FA4       0.0265
     47 H14        29.2956   10.5632   19.4810 H           1 FA4       0.0265
     48 H15        29.2067    8.2969   18.7734 H           1 FA4       0.0265
     49 H16        30.8029    8.5002   19.4721 H           1 FA4       0.0265
     50 H17        31.6223    8.8392   16.9987 H           1 FA4       0.0267
     51 H18        30.0365    8.2309   16.5251 H           1 FA4       0.0267
     52 H19        30.4987    6.0955   17.7111 H           1 FA4       0.0290
     53 H20        32.0212    6.7360   18.3331 H           1 FA4       0.0290
     54 H21        31.3272    6.0796   15.4304 H           1 FA4       0.0502
     55 H22        32.4467    5.2055   16.4567 H           1 FA4       0.0502
     56 H23        32.1161    7.8067   14.3160 H           1 FA4       0.1882
     57 H24        34.8586    8.8096   14.7034 H           1 FA4       0.0799
     58 H25        33.1580   10.5085   15.1552 H           1 FA4       0.0312
     59 H26        32.2728   10.0808   13.6954 H           1 FA4       0.0312
     60 H27        35.7734    7.1384   13.3417 H           1 FA4       0.2217
     61 H28        34.2243   10.9016   12.3186 H           1 FA4       0.0269
     62 H29        35.0183   11.4537   13.7939 H           1 FA4       0.0269
     63 H30        33.3850   13.1696   14.1639 H           1 FA4       0.0317
     64 H31        32.1823   12.3761   13.1490 H           1 FA4       0.0317
     65 H32        33.9765   12.8666   11.1941 H           1 FA4       0.0813
     66 H33        34.4656   14.1563   12.3108 H           1 FA4       0.0813
     67 H34        32.8172   14.8930   10.7905 H           1 FA4       0.1994
     68 H35        32.1334   14.8500   12.3187 H           1 FA4       0.1994
     69 H36        31.7906   13.6434   11.2058 H           1 FA4       0.1994
     70 H37        35.7513   14.5578   20.8782 H           1 FA4       0.0839
     71 H38        37.4912   14.5314   20.8510 H           1 FA4       0.0839
     72 H39        36.8304   12.0394   21.5233 H           1 FA4       0.2664
     73 H40        36.7570   12.2355   24.7353 H           1 FA4       0.2615
     74 H41        36.9713   11.2965   23.4335 H           1 FA4       0.2615
     75 H42        36.2255   15.0309   23.0649 H           1 FA4       0.2615
     76 H43        36.3403   14.3373   24.5206 H           1 FA4       0.2615
     77 H44        35.0941    5.9028   11.5743 H           1 FA4       0.2490
@<TRIPOS>BOND
     1     1     2  ar
     2     1     6  ar
     3     2     3  ar
     4     3     4  ar
     5     3     7   1
     6     4     5  ar
     7     4    27   1
     8     5     6  ar
     9     7     8   1
    10     8     9   1
    11     9    10   1
    12    10    11   1
    13    11    12   1
    14    12    13   1
    15    13    14   1
    16    14    15   1
    17    15    16   1
    18    16    17  am
    19    16    19   2
    20    17    18   1
    21    18    20   1
    22    18    21   1
    23    20    23   1
    24    21    22  am
    25    21    33   2
    26    22    32   1
    27    23    24   1
    28    24    25   1
    29    25    26   1
    30    27    28   1
    31    28    29  ar
    32    29    30  ar
    33    29    31  ar
    34     1    34   1
    35     2    35   1
    36     5    36   1
    37     6    37   1
    38     7    38   1
    39     7    39   1
    40     8    40   1
    41     8    41   1
    42     9    42   1
    43     9    43   1
    44    10    44   1
    45    10    45   1
    46    11    46   1
    47    11    47   1
    48    12    48   1
    49    12    49   1
    50    13    50   1
    51    13    51   1
    52    14    52   1
    53    14    53   1
    54    15    54   1
    55    15    55   1
    56    17    56   1
    57    18    57   1
    58    20    58   1
    59    20    59   1
    60    22    60   1
    61    23    61   1
    62    23    62   1
    63    24    63   1
    64    24    64   1
    65    25    65   1
    66    25    66   1
    67    26    67   1
    68    26    68   1
    69    26    69   1
    70    27    70   1
    71    27    71   1
    72    28    72   1
    73    30    73   1
    74    30    74   1
    75    31    75   1
    76    31    76   1
    77    32    77   1
@<TRIPOS>SUBSTRUCTURE
     1  FA4      1

