@<TRIPOS>MOLECULE
2d1o_ligand_044
    77    77
SMALL
GAST_HUCK
****
This file was generated by PARSER (from files_GN.cpp)

@<TRIPOS>ATOM
      1 C1         21.5531    5.2394   14.2022 C.ar        1 FA4      -0.0755
      2 C2         22.9478    5.1784   14.3379 C.ar        1 FA4      -0.0668
      3 C3         23.6034    3.9658   14.6757 C.ar        1 FA4      -0.0377
      4 C4         22.8271    2.7858   14.8634 C.ar        1 FA4      -0.0050
      5 C5         21.4182    2.8758   14.7283 C.ar        1 FA4      -0.0635
      6 C6         20.7874    4.0880   14.4138 C.ar        1 FA4      -0.0754
      7 C7         25.0881    4.0098   14.8401 C.3         1 FA4      -0.0215
      8 C8         25.8742    3.5986   13.5504 C.3         1 FA4      -0.0443
      9 C9         26.6025    4.7677   12.8249 C.3         1 FA4      -0.0514
     10 C10        27.8009    5.5081   13.5126 C.3         1 FA4      -0.0529
     11 C11        27.9803    5.4930   15.0592 C.3         1 FA4      -0.0530
     12 C12        28.4988    4.1390   15.6290 C.3         1 FA4      -0.0529
     13 C13        29.9441    3.7724   15.1638 C.3         1 FA4      -0.0510
     14 C14        31.0217    3.8804   16.2820 C.3         1 FA4      -0.0361
     15 C15        32.4723    4.0075   15.7194 C.3         1 FA4       0.0374
     16 C16        32.9151    5.3810   15.7216 C.2         1 FA4       0.1782
     17 N17        33.1487    6.0233   14.5910 N.am        1 FA4      -0.2657
     18 C18        33.6124    7.3774   14.4706 C.3         1 FA4       0.1325
     19 O19        33.0294    5.9423   16.7987 O.2         1 FA4      -0.3969
     20 C20        32.7748    8.4495   15.2487 C.3         1 FA4      -0.0123
     21 C21        33.7487    7.6380   13.0433 C.2         1 FA4       0.2244
     22 N22        34.7111    7.0120   12.3784 N.am        1 FA4      -0.1623
     23 C23        31.2707    8.1264   15.4736 C.3         1 FA4      -0.0440
     24 C24        30.3938    9.3791   15.7637 C.3         1 FA4      -0.0124
     25 C25        30.4178    9.8993   17.2212 C.3         1 FA4      -0.0354
     26 N26        29.7016   11.1810   17.3121 N.4         1 FA4       0.2185
     27 C27        23.4379    1.4528   15.1734 C.3         1 FA4       0.0939
     28 N28        24.2893    0.9532   14.1710 N.pl3       1 FA4      -0.2620
     29 C29        23.9867    0.6342   12.9647 C.cat       1 FA4       0.2900
     30 N30        24.9010    0.1720   12.2033 N.pl3       1 FA4      -0.2847
     31 N31        22.8104    0.7432   12.4723 N.pl3       1 FA4      -0.2847
     32 O32        34.7915    6.9830   11.0734 O.3         1 FA4      -0.2717
     33 O33        32.9007    8.2709   12.4312 O.2         1 FA4      -0.3944
     34 H1         21.0945    6.1232   13.9755 H           1 FA4       0.0541
     35 H2         23.4794    6.0372   14.1782 H           1 FA4       0.0537
     36 H3         20.8364    2.0464   14.8665 H           1 FA4       0.0538
     37 H4         19.7698    4.1241   14.3358 H           1 FA4       0.0541
     38 H5         25.4131    3.3910   15.6752 H           1 FA4       0.0411
     39 H6         25.3737    5.0347   15.1213 H           1 FA4       0.0411
     40 H7         25.1883    3.1455   12.8284 H           1 FA4       0.0286
     41 H8         26.6118    2.8265   13.7826 H           1 FA4       0.0286
     42 H9         25.8310    5.5090   12.5217 H           1 FA4       0.0267
     43 H10        26.9853    4.3528   11.8743 H           1 FA4       0.0267
     44 H11        27.7342    6.5615   13.2133 H           1 FA4       0.0265
     45 H12        28.7202    5.1329   13.0430 H           1 FA4       0.0265
     46 H13        27.0362    5.7526   15.5558 H           1 FA4       0.0265
     47 H14        28.7205    6.2622   15.3329 H           1 FA4       0.0265
     48 H15        27.8406    3.3162   15.3404 H           1 FA4       0.0265
     49 H16        28.4551    4.1956   16.7229 H           1 FA4       0.0265
     50 H17        30.2745    4.3888   14.3125 H           1 FA4       0.0267
     51 H18        29.9437    2.7237   14.8071 H           1 FA4       0.0267
     52 H19        30.9423    2.9814   16.8997 H           1 FA4       0.0290
     53 H20        30.7741    4.7343   16.9283 H           1 FA4       0.0290
     54 H21        32.5234    3.5875   14.7125 H           1 FA4       0.0502
     55 H22        33.1451    3.4094   16.3315 H           1 FA4       0.0502
     56 H23        33.0643    5.5082   13.7690 H           1 FA4       0.1882
     57 H24        34.6162    7.4337   14.8954 H           1 FA4       0.0799
     58 H25        32.8678    9.4157   14.7339 H           1 FA4       0.0312
     59 H26        33.2220    8.5868   16.2329 H           1 FA4       0.0312
     60 H27        35.3428    6.4759   12.8857 H           1 FA4       0.2217
     61 H28        31.1650    7.4321   16.3113 H           1 FA4       0.0269
     62 H29        30.8565    7.6301   14.5935 H           1 FA4       0.0269
     63 H30        29.3609    9.1236   15.5171 H           1 FA4       0.0317
     64 H31        30.7052   10.1914   15.1005 H           1 FA4       0.0317
     65 H32        31.4451   10.0555   17.5548 H           1 FA4       0.0813
     66 H33        29.9375    9.1779   17.8843 H           1 FA4       0.0813
     67 H34        29.5934   11.4455   18.2937 H           1 FA4       0.1994
     68 H35        28.7794   11.0951   16.8768 H           1 FA4       0.1994
     69 H36        30.2275   11.9091   16.8242 H           1 FA4       0.1994
     70 H37        22.6733    0.6939   15.3693 H           1 FA4       0.0839
     71 H38        24.0147    1.5420   16.1000 H           1 FA4       0.0839
     72 H39        25.1860    0.8251   14.4207 H           1 FA4       0.2664
     73 H40        24.6921   -0.0739   11.3300 H           1 FA4       0.2615
     74 H41        25.7765    0.0700   12.5108 H           1 FA4       0.2615
     75 H42        22.1074    1.0656   12.9938 H           1 FA4       0.2615
     76 H43        22.6533    0.4986   11.5885 H           1 FA4       0.2615
     77 H44        35.0113    6.0404   10.8741 H           1 FA4       0.2490
@<TRIPOS>BOND
     1     1     2  ar
     2     1     6  ar
     3     2     3  ar
     4     3     4  ar
     5     3     7   1
     6     4     5  ar
     7     4    27   1
     8     5     6  ar
     9     7     8   1
    10     8     9   1
    11     9    10   1
    12    10    11   1
    13    11    12   1
    14    12    13   1
    15    13    14   1
    16    14    15   1
    17    15    16   1
    18    16    17  am
    19    16    19   2
    20    17    18   1
    21    18    20   1
    22    18    21   1
    23    20    23   1
    24    21    22  am
    25    21    33   2
    26    22    32   1
    27    23    24   1
    28    24    25   1
    29    25    26   1
    30    27    28   1
    31    28    29  ar
    32    29    30  ar
    33    29    31  ar
    34     1    34   1
    35     2    35   1
    36     5    36   1
    37     6    37   1
    38     7    38   1
    39     7    39   1
    40     8    40   1
    41     8    41   1
    42     9    42   1
    43     9    43   1
    44    10    44   1
    45    10    45   1
    46    11    46   1
    47    11    47   1
    48    12    48   1
    49    12    49   1
    50    13    50   1
    51    13    51   1
    52    14    52   1
    53    14    53   1
    54    15    54   1
    55    15    55   1
    56    17    56   1
    57    18    57   1
    58    20    58   1
    59    20    59   1
    60    22    60   1
    61    23    61   1
    62    23    62   1
    63    24    63   1
    64    24    64   1
    65    25    65   1
    66    25    66   1
    67    26    67   1
    68    26    68   1
    69    26    69   1
    70    27    70   1
    71    27    71   1
    72    28    72   1
    73    30    73   1
    74    30    74   1
    75    31    75   1
    76    31    76   1
    77    32    77   1
@<TRIPOS>SUBSTRUCTURE
     1  FA4      1

