@<TRIPOS>MOLECULE
2d1o_ligand_059
    77    77
SMALL
GAST_HUCK
****
This file was generated by PARSER (from files_GN.cpp)

@<TRIPOS>ATOM
      1 C1         24.7017    5.4700   12.8932 C.ar        1 FA4      -0.0755
      2 C2         24.3984    4.6634   13.9972 C.ar        1 FA4      -0.0668
      3 C3         25.4114    3.9733   14.7136 C.ar        1 FA4      -0.0377
      4 C4         26.7794    4.1418   14.3216 C.ar        1 FA4      -0.0050
      5 C5         27.0543    5.0088   13.2314 C.ar        1 FA4      -0.0635
      6 C6         26.0346    5.6541   12.5130 C.ar        1 FA4      -0.0754
      7 C7         24.9742    3.1453   15.8751 C.3         1 FA4      -0.0215
      8 C8         24.8103    1.6296   15.5529 C.3         1 FA4      -0.0443
      9 C9         23.5537    1.2480   14.7204 C.3         1 FA4      -0.0514
     10 C10        23.7629    1.2415   13.1759 C.3         1 FA4      -0.0529
     11 C11        22.4712    0.9147   12.3782 C.3         1 FA4      -0.0530
     12 C12        21.4391    2.0827   12.2798 C.3         1 FA4      -0.0529
     13 C13        21.5694    2.9592   10.9927 C.3         1 FA4      -0.0510
     14 C14        20.8436    2.3993    9.7358 C.3         1 FA4      -0.0361
     15 C15        19.3578    2.8608    9.5791 C.3         1 FA4       0.0374
     16 C16        18.4062    2.1875   10.4510 C.2         1 FA4       0.1782
     17 N17        18.0129    0.9539   10.1372 N.am        1 FA4      -0.2657
     18 C18        16.9910    0.1458   10.7453 C.3         1 FA4       0.1325
     19 O19        17.9481    2.7906   11.4214 O.2         1 FA4      -0.3969
     20 C20        15.5649    0.6457   10.3266 C.3         1 FA4      -0.0123
     21 C21        17.1310   -0.1534   12.1756 C.2         1 FA4       0.2244
     22 N22        16.1949   -0.8329   12.8113 N.am        1 FA4      -0.1623
     23 C23        14.9458    1.8230   11.1555 C.3         1 FA4      -0.0440
     24 C24        13.4984    1.5501   11.6558 C.3         1 FA4      -0.0124
     25 C25        12.8972    2.7056   12.4941 C.3         1 FA4      -0.0354
     26 N26        13.5729    2.8666   13.7893 N.4         1 FA4       0.2185
     27 C27        27.9387    3.5565   15.0728 C.3         1 FA4       0.0939
     28 N28        29.0178    3.1578   14.2688 N.pl3       1 FA4      -0.2620
     29 C29        30.1627    3.7277   14.1192 C.cat       1 FA4       0.2900
     30 N30        31.0172    3.1670   13.3598 N.pl3       1 FA4      -0.2847
     31 N31        30.5087    4.8342   14.6733 N.pl3       1 FA4      -0.2847
     32 O32        16.2426   -1.0743   14.1025 O.3         1 FA4      -0.2717
     33 O33        18.1499    0.1839   12.7685 O.2         1 FA4      -0.3944
     34 H1         23.9577    5.9512   12.3812 H           1 FA4       0.0541
     35 H2         23.4174    4.5735   14.2576 H           1 FA4       0.0537
     36 H3         28.0125    5.1975   12.9546 H           1 FA4       0.0538
     37 H4         26.2680    6.2614   11.7197 H           1 FA4       0.0541
     38 H5         24.0296    3.5124   16.2824 H           1 FA4       0.0411
     39 H6         25.7004    3.2649   16.6740 H           1 FA4       0.0411
     40 H7         24.7323    1.1132   16.5119 H           1 FA4       0.0286
     41 H8         25.7121    1.2407   15.0681 H           1 FA4       0.0286
     42 H9         22.7266    1.9095   14.9877 H           1 FA4       0.0267
     43 H10        23.2456    0.2368   15.0037 H           1 FA4       0.0267
     44 H11        24.5072    0.4780   12.9366 H           1 FA4       0.0265
     45 H12        24.1578    2.1970   12.8330 H           1 FA4       0.0265
     46 H13        21.9819    0.0434   12.8321 H           1 FA4       0.0265
     47 H14        22.7583    0.6160   11.3664 H           1 FA4       0.0265
     48 H15        21.5389    2.7398   13.1517 H           1 FA4       0.0265
     49 H16        20.4258    1.6703   12.3255 H           1 FA4       0.0265
     50 H17        22.6306    3.0698   10.7665 H           1 FA4       0.0267
     51 H18        21.1933    3.9633   11.2118 H           1 FA4       0.0267
     52 H19        20.8946    1.3070    9.7182 H           1 FA4       0.0290
     53 H20        21.3771    2.7637    8.8597 H           1 FA4       0.0290
     54 H21        19.0464    2.7021    8.5410 H           1 FA4       0.0502
     55 H22        19.3135    3.9427    9.7451 H           1 FA4       0.0502
     56 H23        18.4236    0.5854    9.3305 H           1 FA4       0.1882
     57 H24        17.1082   -0.8135   10.2369 H           1 FA4       0.0799
     58 H25        14.8894   -0.2175   10.3792 H           1 FA4       0.0312
     59 H26        15.5810    0.9380    9.2642 H           1 FA4       0.0312
     60 H27        15.4118   -1.0947   12.3105 H           1 FA4       0.2217
     61 H28        14.9338    2.7333   10.5332 H           1 FA4       0.0269
     62 H29        15.5684    2.0418   12.0319 H           1 FA4       0.0269
     63 H30        13.4908    0.6374   12.2652 H           1 FA4       0.0317
     64 H31        12.8485    1.3779   10.7847 H           1 FA4       0.0317
     65 H32        11.8435    2.4970   12.6864 H           1 FA4       0.0813
     66 H33        12.9679    3.6437   11.9325 H           1 FA4       0.0813
     67 H34        13.1399    3.6498   14.2936 H           1 FA4       0.1994
     68 H35        14.5738    3.0691   13.6398 H           1 FA4       0.1994
     69 H36        13.4755    2.0059   14.3412 H           1 FA4       0.1994
     70 H37        27.6374    2.6537   15.5959 H           1 FA4       0.0839
     71 H38        28.2218    4.2824   15.8356 H           1 FA4       0.0839
     72 H39        28.8849    2.3716   13.7722 H           1 FA4       0.2664
     73 H40        31.8573    3.5580   13.2293 H           1 FA4       0.2615
     74 H41        30.8201    2.3610   12.9346 H           1 FA4       0.2615
     75 H42        29.9193    5.2879   15.2348 H           1 FA4       0.2615
     76 H43        31.3643    5.1778   14.5138 H           1 FA4       0.2615
     77 H44        16.7976   -1.8749   14.1662 H           1 FA4       0.2490
@<TRIPOS>BOND
     1     1     2  ar
     2     1     6  ar
     3     2     3  ar
     4     3     4  ar
     5     3     7   1
     6     4     5  ar
     7     4    27   1
     8     5     6  ar
     9     7     8   1
    10     8     9   1
    11     9    10   1
    12    10    11   1
    13    11    12   1
    14    12    13   1
    15    13    14   1
    16    14    15   1
    17    15    16   1
    18    16    17  am
    19    16    19   2
    20    17    18   1
    21    18    20   1
    22    18    21   1
    23    20    23   1
    24    21    22  am
    25    21    33   2
    26    22    32   1
    27    23    24   1
    28    24    25   1
    29    25    26   1
    30    27    28   1
    31    28    29  ar
    32    29    30  ar
    33    29    31  ar
    34     1    34   1
    35     2    35   1
    36     5    36   1
    37     6    37   1
    38     7    38   1
    39     7    39   1
    40     8    40   1
    41     8    41   1
    42     9    42   1
    43     9    43   1
    44    10    44   1
    45    10    45   1
    46    11    46   1
    47    11    47   1
    48    12    48   1
    49    12    49   1
    50    13    50   1
    51    13    51   1
    52    14    52   1
    53    14    53   1
    54    15    54   1
    55    15    55   1
    56    17    56   1
    57    18    57   1
    58    20    58   1
    59    20    59   1
    60    22    60   1
    61    23    61   1
    62    23    62   1
    63    24    63   1
    64    24    64   1
    65    25    65   1
    66    25    66   1
    67    26    67   1
    68    26    68   1
    69    26    69   1
    70    27    70   1
    71    27    71   1
    72    28    72   1
    73    30    73   1
    74    30    74   1
    75    31    75   1
    76    31    76   1
    77    32    77   1
@<TRIPOS>SUBSTRUCTURE
     1  FA4      1

