@<TRIPOS>MOLECULE
2d1o_ligand_030
    77    77
SMALL
GAST_HUCK
****
This file was generated by PARSER (from files_GN.cpp)

@<TRIPOS>ATOM
      1 C1         20.5795    6.4943   11.8713 C.ar        1 FA4      -0.0755
      2 C2         21.7689    6.1828   12.5445 C.ar        1 FA4      -0.0668
      3 C3         21.8408    5.0864   13.4428 C.ar        1 FA4      -0.0377
      4 C4         20.6787    4.2796   13.6558 C.ar        1 FA4      -0.0050
      5 C5         19.4909    4.6128   12.9557 C.ar        1 FA4      -0.0635
      6 C6         19.4377    5.7069   12.0755 C.ar        1 FA4      -0.0754
      7 C7         23.1548    4.8290   14.1059 C.3         1 FA4      -0.0215
      8 C8         24.0924    3.8927   13.2756 C.3         1 FA4      -0.0443
      9 C9         25.2739    4.5975   12.5552 C.3         1 FA4      -0.0514
     10 C10        26.3354    5.2214   13.5014 C.3         1 FA4      -0.0529
     11 C11        27.4094    4.2245   14.0364 C.3         1 FA4      -0.0530
     12 C12        27.9022    4.5401   15.4741 C.3         1 FA4      -0.0529
     13 C13        28.4662    5.9833   15.6663 C.3         1 FA4      -0.0510
     14 C14        29.4909    6.1196   16.8264 C.3         1 FA4      -0.0361
     15 C15        30.8620    5.4348   16.5120 C.3         1 FA4       0.0374
     16 C16        31.9764    6.3366   16.2799 C.2         1 FA4       0.1782
     17 N17        31.8055    7.4145   15.5241 N.am        1 FA4      -0.2657
     18 C18        32.8143    8.3343   15.0760 C.3         1 FA4       0.1325
     19 O19        33.0858    6.0274   16.6971 O.2         1 FA4      -0.3969
     20 C20        32.4868    9.7701   15.6016 C.3         1 FA4      -0.0123
     21 C21        32.9163    8.1345   13.6351 C.2         1 FA4       0.2244
     22 N22        33.7074    7.1995   13.1459 N.am        1 FA4      -0.1623
     23 C23        31.1775   10.4377   15.0878 C.3         1 FA4      -0.0440
     24 C24        30.9231   11.8829   15.6116 C.3         1 FA4      -0.0124
     25 C25        30.5733   12.0256   17.1142 C.3         1 FA4      -0.0354
     26 N26        29.5445   11.0767   17.5558 N.4         1 FA4       0.2185
     27 C27        20.6460    3.1216   14.6088 C.3         1 FA4       0.0939
     28 N28        21.6188    2.1374   14.3916 N.pl3       1 FA4      -0.2620
     29 C29        21.7695    1.3750   13.3704 C.cat       1 FA4       0.2900
     30 N30        22.7424    0.5464   13.3856 N.pl3       1 FA4      -0.2847
     31 N31        21.0194    1.3936   12.3349 N.pl3       1 FA4      -0.2847
     32 O32        33.6574    6.8547   11.8866 O.3         1 FA4      -0.2717
     33 O33        32.0791    8.6390   12.8932 O.2         1 FA4      -0.3944
     34 H1         20.5433    7.2990   11.2442 H           1 FA4       0.0541
     35 H2         22.5910    6.7725   12.3746 H           1 FA4       0.0537
     36 H3         18.6384    4.0618   13.0885 H           1 FA4       0.0538
     37 H4         18.5689    5.9326   11.5890 H           1 FA4       0.0541
     38 H5         23.0019    4.3921   15.0953 H           1 FA4       0.0411
     39 H6         23.6361    5.7881   14.3030 H           1 FA4       0.0411
     40 H7         23.5126    3.3697   12.5104 H           1 FA4       0.0286
     41 H8         24.4903    3.1207   13.9363 H           1 FA4       0.0286
     42 H9         24.8719    5.3853   11.9166 H           1 FA4       0.0267
     43 H10        25.7771    3.8759   11.9063 H           1 FA4       0.0267
     44 H11        25.8231    5.6988   14.3422 H           1 FA4       0.0265
     45 H12        26.8544    6.0239   12.9605 H           1 FA4       0.0265
     46 H13        28.2662    4.2263   13.3553 H           1 FA4       0.0265
     47 H14        27.0147    3.2071   14.0447 H           1 FA4       0.0265
     48 H15        28.6645    3.7991   15.7352 H           1 FA4       0.0265
     49 H16        27.0661    4.3941   16.1689 H           1 FA4       0.0265
     50 H17        27.6257    6.6559   15.8682 H           1 FA4       0.0267
     51 H18        28.9394    6.3260   14.7431 H           1 FA4       0.0267
     52 H19        29.0593    5.6786   17.7299 H           1 FA4       0.0290
     53 H20        29.6324    7.1845   17.0421 H           1 FA4       0.0290
     54 H21        30.7798    4.8100   15.6176 H           1 FA4       0.0502
     55 H22        31.1079    4.7594   17.3322 H           1 FA4       0.0502
     56 H23        30.9008    7.5838   15.2113 H           1 FA4       0.1882
     57 H24        33.7903    8.0817   15.5164 H           1 FA4       0.0799
     58 H25        33.3277   10.4241   15.3674 H           1 FA4       0.0312
     59 H26        32.4215    9.7090   16.6938 H           1 FA4       0.0312
     60 H27        34.2946    6.7055   13.7493 H           1 FA4       0.2217
     61 H28        30.3156    9.8082   15.3301 H           1 FA4       0.0269
     62 H29        31.2309   10.5161   13.9976 H           1 FA4       0.0269
     63 H30        30.0940   12.3065   15.0314 H           1 FA4       0.0317
     64 H31        31.8073   12.4937   15.3976 H           1 FA4       0.0317
     65 H32        30.1984   13.0380   17.2891 H           1 FA4       0.0813
     66 H33        31.4675   11.8868   17.7225 H           1 FA4       0.0813
     67 H34        29.2459   11.3198   18.5042 H           1 FA4       0.1994
     68 H35        29.9345   10.1329   17.5579 H           1 FA4       0.1994
     69 H36        28.7398   11.1112   16.9266 H           1 FA4       0.1994
     70 H37        19.6670    2.6324   14.6255 H           1 FA4       0.0839
     71 H38        20.8036    3.5212   15.6146 H           1 FA4       0.0839
     72 H39        22.2332    2.0100   15.0871 H           1 FA4       0.2664
     73 H40        22.8955   -0.0110   12.6510 H           1 FA4       0.2615
     74 H41        23.3141    0.5056   14.1242 H           1 FA4       0.2615
     75 H42        20.3005    1.9888   12.2855 H           1 FA4       0.2615
     76 H43        21.1976    0.8204   11.6169 H           1 FA4       0.2615
     77 H44        34.0331    5.9449   11.8622 H           1 FA4       0.2490
@<TRIPOS>BOND
     1     1     2  ar
     2     1     6  ar
     3     2     3  ar
     4     3     4  ar
     5     3     7   1
     6     4     5  ar
     7     4    27   1
     8     5     6  ar
     9     7     8   1
    10     8     9   1
    11     9    10   1
    12    10    11   1
    13    11    12   1
    14    12    13   1
    15    13    14   1
    16    14    15   1
    17    15    16   1
    18    16    17  am
    19    16    19   2
    20    17    18   1
    21    18    20   1
    22    18    21   1
    23    20    23   1
    24    21    22  am
    25    21    33   2
    26    22    32   1
    27    23    24   1
    28    24    25   1
    29    25    26   1
    30    27    28   1
    31    28    29  ar
    32    29    30  ar
    33    29    31  ar
    34     1    34   1
    35     2    35   1
    36     5    36   1
    37     6    37   1
    38     7    38   1
    39     7    39   1
    40     8    40   1
    41     8    41   1
    42     9    42   1
    43     9    43   1
    44    10    44   1
    45    10    45   1
    46    11    46   1
    47    11    47   1
    48    12    48   1
    49    12    49   1
    50    13    50   1
    51    13    51   1
    52    14    52   1
    53    14    53   1
    54    15    54   1
    55    15    55   1
    56    17    56   1
    57    18    57   1
    58    20    58   1
    59    20    59   1
    60    22    60   1
    61    23    61   1
    62    23    62   1
    63    24    63   1
    64    24    64   1
    65    25    65   1
    66    25    66   1
    67    26    67   1
    68    26    68   1
    69    26    69   1
    70    27    70   1
    71    27    71   1
    72    28    72   1
    73    30    73   1
    74    30    74   1
    75    31    75   1
    76    31    76   1
    77    32    77   1
@<TRIPOS>SUBSTRUCTURE
     1  FA4      1

