@<TRIPOS>MOLECULE
2d1o_ligand_038
    77    77
SMALL
GAST_HUCK
****
This file was generated by PARSER (from files_GN.cpp)

@<TRIPOS>ATOM
      1 C1         25.7288    3.5621   24.0354 C.ar        1 FA4      -0.0755
      2 C2         26.0964    4.4406   23.0025 C.ar        1 FA4      -0.0668
      3 C3         27.0848    5.4410   23.1903 C.ar        1 FA4      -0.0377
      4 C4         27.7301    5.5288   24.4706 C.ar        1 FA4      -0.0050
      5 C5         27.3356    4.6337   25.5000 C.ar        1 FA4      -0.0635
      6 C6         26.3449    3.6636   25.2879 C.ar        1 FA4      -0.0754
      7 C7         27.3851    6.3396   22.0201 C.3         1 FA4      -0.0215
      8 C8         26.7309    7.7441   22.1382 C.3         1 FA4      -0.0443
      9 C9         26.9122    8.6901   20.9164 C.3         1 FA4      -0.0514
     10 C10        28.3861    9.0055   20.5002 C.3         1 FA4      -0.0529
     11 C11        28.7991    8.5188   19.0815 C.3         1 FA4      -0.0530
     12 C12        30.1940    9.0707   18.6654 C.3         1 FA4      -0.0529
     13 C13        30.8114    8.4241   17.3976 C.3         1 FA4      -0.0510
     14 C14        31.4110    7.0070   17.6261 C.3         1 FA4      -0.0361
     15 C15        32.0611    6.3901   16.3574 C.3         1 FA4       0.0374
     16 C16        33.1867    7.1622   15.8590 C.2         1 FA4       0.1782
     17 N17        33.0027    7.9802   14.8316 N.am        1 FA4      -0.2657
     18 C18        33.9655    8.8283   14.1849 C.3         1 FA4       0.1325
     19 O19        34.2672    7.0720   16.4233 O.2         1 FA4      -0.3969
     20 C20        33.3907   10.2804   14.1744 C.3         1 FA4      -0.0123
     21 C21        34.1871    8.2631   12.8581 C.2         1 FA4       0.2244
     22 N22        35.1600    7.3968   12.6518 N.am        1 FA4      -0.1623
     23 C23        34.1446   11.3009   13.2743 C.3         1 FA4      -0.0440
     24 C24        33.3807   12.6460   13.1316 C.3         1 FA4      -0.0124
     25 C25        33.7867   13.4719   11.8850 C.3         1 FA4      -0.0354
     26 N26        32.6594   14.2708   11.3925 N.4         1 FA4       0.2185
     27 C27        28.7958    6.5257   24.8046 C.3         1 FA4       0.0939
     28 N28        29.8914    6.4893   23.9428 N.pl3       1 FA4      -0.2620
     29 C29        30.8380    5.6221   23.9011 C.cat       1 FA4       0.2900
     30 N30        31.7192    5.7537   22.9907 N.pl3       1 FA4      -0.2847
     31 N31        30.9683    4.6435   24.7130 N.pl3       1 FA4      -0.2847
     32 O32        35.3306    6.7953   11.5049 O.3         1 FA4      -0.2717
     33 O33        33.3545    8.4348   11.9756 O.2         1 FA4      -0.3944
     34 H1         25.0095    2.8530   23.8775 H           1 FA4       0.0541
     35 H2         25.6128    4.3474   22.1046 H           1 FA4       0.0537
     36 H3         27.7639    4.6816   26.4288 H           1 FA4       0.0538
     37 H4         26.0701    3.0341   26.0467 H           1 FA4       0.0541
     38 H5         27.0344    5.8888   21.0904 H           1 FA4       0.0411
     39 H6         28.4617    6.4378   21.8881 H           1 FA4       0.0411
     40 H7         27.1159    8.2620   23.0150 H           1 FA4       0.0286
     41 H8         25.6601    7.6053   22.2927 H           1 FA4       0.0286
     42 H9         26.4359    9.6376   21.1850 H           1 FA4       0.0267
     43 H10        26.3445    8.2956   20.0703 H           1 FA4       0.0267
     44 H11        29.0809    8.5788   21.2284 H           1 FA4       0.0265
     45 H12        28.5321   10.0900   20.5307 H           1 FA4       0.0265
     46 H13        28.0547    8.8551   18.3531 H           1 FA4       0.0265
     47 H14        28.8052    7.4275   19.0736 H           1 FA4       0.0265
     48 H15        30.8979    8.9591   19.4926 H           1 FA4       0.0265
     49 H16        30.0781   10.1421   18.4772 H           1 FA4       0.0265
     50 H17        31.6142    9.0802   17.0558 H           1 FA4       0.0267
     51 H18        30.0572    8.3831   16.6084 H           1 FA4       0.0267
     52 H19        30.6234    6.3264   17.9543 H           1 FA4       0.0290
     53 H20        32.1528    7.0553   18.4271 H           1 FA4       0.0290
     54 H21        31.2911    6.2972   15.5863 H           1 FA4       0.0502
     55 H22        32.3997    5.3741   16.5851 H           1 FA4       0.0502
     56 H23        32.1076    7.9997   14.4561 H           1 FA4       0.1882
     57 H24        34.9164    8.8495   14.7320 H           1 FA4       0.0799
     58 H25        33.3830   10.6647   15.2020 H           1 FA4       0.0312
     59 H26        32.3506   10.2244   13.8407 H           1 FA4       0.0312
     60 H27        35.7316    7.1436   13.3913 H           1 FA4       0.2217
     61 H28        34.2703   10.8611   12.2858 H           1 FA4       0.0269
     62 H29        35.1437   11.4828   13.6787 H           1 FA4       0.0269
     63 H30        33.5349   13.2474   14.0328 H           1 FA4       0.0317
     64 H31        32.3109   12.4427   13.0641 H           1 FA4       0.0317
     65 H32        34.0869   12.8243   11.0599 H           1 FA4       0.0813
     66 H33        34.6226   14.1330   12.1232 H           1 FA4       0.0813
     67 H34        32.9456   14.8064   10.5666 H           1 FA4       0.1994
     68 H35        32.3343   14.9084   12.1239 H           1 FA4       0.1994
     69 H36        31.8974   13.6409   11.1282 H           1 FA4       0.1994
     70 H37        29.1617    6.4259   25.8312 H           1 FA4       0.0839
     71 H38        28.3592    7.5191   24.7543 H           1 FA4       0.0839
     72 H39        29.9345    7.1731   23.3062 H           1 FA4       0.2664
     73 H40        32.4372    5.1569   22.9462 H           1 FA4       0.2615
     74 H41        31.6638    6.4452   22.3605 H           1 FA4       0.2615
     75 H42        30.3516    4.5146   25.4010 H           1 FA4       0.2615
     76 H43        31.6951    4.0596   24.6297 H           1 FA4       0.2615
     77 H44        35.0223    5.8732   11.6489 H           1 FA4       0.2490
@<TRIPOS>BOND
     1     1     2  ar
     2     1     6  ar
     3     2     3  ar
     4     3     4  ar
     5     3     7   1
     6     4     5  ar
     7     4    27   1
     8     5     6  ar
     9     7     8   1
    10     8     9   1
    11     9    10   1
    12    10    11   1
    13    11    12   1
    14    12    13   1
    15    13    14   1
    16    14    15   1
    17    15    16   1
    18    16    17  am
    19    16    19   2
    20    17    18   1
    21    18    20   1
    22    18    21   1
    23    20    23   1
    24    21    22  am
    25    21    33   2
    26    22    32   1
    27    23    24   1
    28    24    25   1
    29    25    26   1
    30    27    28   1
    31    28    29  ar
    32    29    30  ar
    33    29    31  ar
    34     1    34   1
    35     2    35   1
    36     5    36   1
    37     6    37   1
    38     7    38   1
    39     7    39   1
    40     8    40   1
    41     8    41   1
    42     9    42   1
    43     9    43   1
    44    10    44   1
    45    10    45   1
    46    11    46   1
    47    11    47   1
    48    12    48   1
    49    12    49   1
    50    13    50   1
    51    13    51   1
    52    14    52   1
    53    14    53   1
    54    15    54   1
    55    15    55   1
    56    17    56   1
    57    18    57   1
    58    20    58   1
    59    20    59   1
    60    22    60   1
    61    23    61   1
    62    23    62   1
    63    24    63   1
    64    24    64   1
    65    25    65   1
    66    25    66   1
    67    26    67   1
    68    26    68   1
    69    26    69   1
    70    27    70   1
    71    27    71   1
    72    28    72   1
    73    30    73   1
    74    30    74   1
    75    31    75   1
    76    31    76   1
    77    32    77   1
@<TRIPOS>SUBSTRUCTURE
     1  FA4      1

