@<TRIPOS>MOLECULE
2d1o_ligand_096
    77    77
SMALL
GAST_HUCK
****
This file was generated by PARSER (from files_GN.cpp)

@<TRIPOS>ATOM
      1 C1         26.1927    3.7997   12.7073 C.ar        1 FA4      -0.0755
      2 C2         26.9489    4.9216   13.0806 C.ar        1 FA4      -0.0668
      3 C3         27.9774    4.8341   14.0527 C.ar        1 FA4      -0.0377
      4 C4         28.2129    3.5698   14.6911 C.ar        1 FA4      -0.0050
      5 C5         27.4201    2.4570   14.3026 C.ar        1 FA4      -0.0635
      6 C6         26.4200    2.5663   13.3258 C.ar        1 FA4      -0.0754
      7 C7         28.7709    6.0791   14.2991 C.3         1 FA4      -0.0215
      8 C8         28.7833    6.5342   15.7872 C.3         1 FA4      -0.0443
      9 C9         29.2745    8.0008   15.9916 C.3         1 FA4      -0.0514
     10 C10        30.7570    8.1437   16.3915 C.3         1 FA4      -0.0529
     11 C11        31.2420    9.6242   16.2905 C.3         1 FA4      -0.0530
     12 C12        32.5291    9.9571   17.0818 C.3         1 FA4      -0.0529
     13 C13        32.5574    9.5681   18.5956 C.3         1 FA4      -0.0510
     14 C14        31.4715   10.2035   19.5082 C.3         1 FA4      -0.0361
     15 C15        31.9738   11.4371   20.3173 C.3         1 FA4       0.0374
     16 C16        30.9127   12.0592   21.0741 C.2         1 FA4       0.1782
     17 N17        30.9614   12.1061   22.4034 N.am        1 FA4      -0.2657
     18 C18        29.9803   12.6791   23.2874 C.3         1 FA4       0.1325
     19 O19        29.9672   12.5376   20.4533 O.2         1 FA4      -0.3969
     20 C20        30.6121   13.8998   24.0348 C.3         1 FA4      -0.0123
     21 C21        29.4823   11.6080   24.1515 C.2         1 FA4       0.2244
     22 N22        28.8696   10.5669   23.6053 N.am        1 FA4      -0.1623
     23 C23        31.0396   15.0806   23.1037 C.3         1 FA4      -0.0440
     24 C24        32.5592   15.4051   23.1038 C.3         1 FA4      -0.0124
     25 C25        33.4478   14.3370   22.4192 C.3         1 FA4      -0.0354
     26 N26        34.8528   14.7662   22.3911 N.4         1 FA4       0.2185
     27 C27        29.2027    3.3324   15.7999 C.3         1 FA4       0.0939
     28 N28        30.4415    3.9683   15.7058 N.pl3       1 FA4      -0.2620
     29 C29        31.2479    3.9570   14.7099 C.cat       1 FA4       0.2900
     30 N30        32.3523    4.5838   14.8385 N.pl3       1 FA4      -0.2847
     31 N31        31.0453    3.3789   13.5858 N.pl3       1 FA4      -0.2847
     32 O32        28.3850    9.5700   24.2970 O.3         1 FA4      -0.2717
     33 O33        29.5983   11.6663   25.3718 O.2         1 FA4      -0.3944
     34 H1         25.4592    3.8845   11.9958 H           1 FA4       0.0541
     35 H2         26.7450    5.8029   12.6074 H           1 FA4       0.0537
     36 H3         27.5585    1.5436   14.7442 H           1 FA4       0.0538
     37 H4         25.8699    1.7502   13.0628 H           1 FA4       0.0541
     38 H5         28.3874    6.9108   13.7117 H           1 FA4       0.0411
     39 H6         29.7916    5.9393   13.9486 H           1 FA4       0.0411
     40 H7         29.4073    5.8704   16.3874 H           1 FA4       0.0286
     41 H8         27.7581    6.4444   16.1756 H           1 FA4       0.0286
     42 H9         28.6643    8.4400   16.7912 H           1 FA4       0.0267
     43 H10        29.1109    8.5735   15.0777 H           1 FA4       0.0267
     44 H11        31.3760    7.5087   15.7493 H           1 FA4       0.0265
     45 H12        30.8481    7.7837   17.4193 H           1 FA4       0.0265
     46 H13        30.4522   10.3041   16.6131 H           1 FA4       0.0265
     47 H14        31.4255    9.8520   15.2353 H           1 FA4       0.0265
     48 H15        32.7135   11.0326   17.0149 H           1 FA4       0.0265
     49 H16        33.3746    9.4568   16.5993 H           1 FA4       0.0265
     50 H17        33.5400    9.8348   18.9956 H           1 FA4       0.0267
     51 H18        32.4846    8.4798   18.6764 H           1 FA4       0.0267
     52 H19        31.1321    9.4527   20.2326 H           1 FA4       0.0290
     53 H20        30.5917   10.4720   18.9149 H           1 FA4       0.0290
     54 H21        32.4033   12.1799   19.6388 H           1 FA4       0.0502
     55 H22        32.7797   11.1066   20.9862 H           1 FA4       0.0502
     56 H23        31.7323   11.6953   22.8389 H           1 FA4       0.1882
     57 H24        29.1110   13.0607   22.7352 H           1 FA4       0.0799
     58 H25        31.4604   13.5501   24.6285 H           1 FA4       0.0312
     59 H26        29.8701   14.2738   24.7482 H           1 FA4       0.0312
     60 H27        28.8053   10.5264   22.6378 H           1 FA4       0.2217
     61 H28        30.5134   15.9816   23.4325 H           1 FA4       0.0269
     62 H29        30.7250   14.8958   22.0721 H           1 FA4       0.0269
     63 H30        32.8949   15.5501   24.1333 H           1 FA4       0.0317
     64 H31        32.6979   16.3525   22.5745 H           1 FA4       0.0317
     65 H32        33.1200   14.1796   21.3866 H           1 FA4       0.0813
     66 H33        33.3905   13.3873   22.9583 H           1 FA4       0.0813
     67 H34        35.4180   14.0545   21.9271 H           1 FA4       0.1994
     68 H35        35.1912   14.8995   23.3447 H           1 FA4       0.1994
     69 H36        34.9277   15.6462   21.8776 H           1 FA4       0.1994
     70 H37        29.4061    2.2596   15.9229 H           1 FA4       0.0839
     71 H38        28.7303    3.6545   16.7359 H           1 FA4       0.0839
     72 H39        30.7416    4.4079   16.4662 H           1 FA4       0.2664
     73 H40        32.9495    4.6331   14.1158 H           1 FA4       0.2615
     74 H41        32.5711    5.0176   15.6430 H           1 FA4       0.2615
     75 H42        30.2633    2.8945   13.4321 H           1 FA4       0.2615
     76 H43        31.6820    3.4525   12.9059 H           1 FA4       0.2615
     77 H44        27.8850    9.9904   25.0340 H           1 FA4       0.2490
@<TRIPOS>BOND
     1     1     2  ar
     2     1     6  ar
     3     2     3  ar
     4     3     4  ar
     5     3     7   1
     6     4     5  ar
     7     4    27   1
     8     5     6  ar
     9     7     8   1
    10     8     9   1
    11     9    10   1
    12    10    11   1
    13    11    12   1
    14    12    13   1
    15    13    14   1
    16    14    15   1
    17    15    16   1
    18    16    17  am
    19    16    19   2
    20    17    18   1
    21    18    20   1
    22    18    21   1
    23    20    23   1
    24    21    22  am
    25    21    33   2
    26    22    32   1
    27    23    24   1
    28    24    25   1
    29    25    26   1
    30    27    28   1
    31    28    29  ar
    32    29    30  ar
    33    29    31  ar
    34     1    34   1
    35     2    35   1
    36     5    36   1
    37     6    37   1
    38     7    38   1
    39     7    39   1
    40     8    40   1
    41     8    41   1
    42     9    42   1
    43     9    43   1
    44    10    44   1
    45    10    45   1
    46    11    46   1
    47    11    47   1
    48    12    48   1
    49    12    49   1
    50    13    50   1
    51    13    51   1
    52    14    52   1
    53    14    53   1
    54    15    54   1
    55    15    55   1
    56    17    56   1
    57    18    57   1
    58    20    58   1
    59    20    59   1
    60    22    60   1
    61    23    61   1
    62    23    62   1
    63    24    63   1
    64    24    64   1
    65    25    65   1
    66    25    66   1
    67    26    67   1
    68    26    68   1
    69    26    69   1
    70    27    70   1
    71    27    71   1
    72    28    72   1
    73    30    73   1
    74    30    74   1
    75    31    75   1
    76    31    76   1
    77    32    77   1
@<TRIPOS>SUBSTRUCTURE
     1  FA4      1

