@<TRIPOS>MOLECULE
2d1o_ligand_068
    77    77
SMALL
GAST_HUCK
****
This file was generated by PARSER (from files_GN.cpp)

@<TRIPOS>ATOM
      1 C1         23.1099    1.6535   15.2931 C.ar        1 FA4      -0.0755
      2 C2         24.1450    2.6026   15.3390 C.ar        1 FA4      -0.0668
      3 C3         24.3721    3.5005   14.2613 C.ar        1 FA4      -0.0377
      4 C4         23.4947    3.4505   13.1269 C.ar        1 FA4      -0.0050
      5 C5         22.4658    2.4741   13.1039 C.ar        1 FA4      -0.0635
      6 C6         22.2778    1.5803   14.1676 C.ar        1 FA4      -0.0754
      7 C7         25.5541    4.4279   14.3712 C.3         1 FA4      -0.0215
      8 C8         26.7402    4.0326   13.4417 C.3         1 FA4      -0.0443
      9 C9         28.1396    4.4242   13.9753 C.3         1 FA4      -0.0514
     10 C10        28.4348    5.9562   14.0536 C.3         1 FA4      -0.0529
     11 C11        28.6694    6.5026   15.5031 C.3         1 FA4      -0.0530
     12 C12        29.5550    7.7899   15.5659 C.3         1 FA4      -0.0529
     13 C13        31.0357    7.5831   16.0190 C.3         1 FA4      -0.0510
     14 C14        31.7837    6.3401   15.4297 C.3         1 FA4      -0.0361
     15 C15        33.2252    6.5723   14.9201 C.3         1 FA4       0.0374
     16 C16        33.3491    7.6355   13.9348 C.2         1 FA4       0.1782
     17 N17        34.0572    8.7143   14.2481 N.am        1 FA4      -0.2657
     18 C18        34.1399    9.9421   13.5109 C.3         1 FA4       0.1325
     19 O19        32.6916    7.5680   12.9039 O.2         1 FA4      -0.3969
     20 C20        35.6295   10.2545   13.1747 C.3         1 FA4      -0.0123
     21 C21        33.4725   10.9601   14.3169 C.2         1 FA4       0.2244
     22 N22        32.1528   11.0085   14.3397 N.am        1 FA4      -0.1623
     23 C23        36.2553    9.3062   12.1119 C.3         1 FA4      -0.0440
     24 C24        37.6084    9.8384   11.5642 C.3         1 FA4      -0.0124
     25 C25        38.1945    9.0116   10.3957 C.3         1 FA4      -0.0354
     26 N26        37.4542    9.2003    9.1389 N.4         1 FA4       0.2185
     27 C27        23.6002    4.3732   11.9524 C.3         1 FA4       0.0939
     28 N28        23.5365    5.7297   12.2875 N.pl3       1 FA4      -0.2620
     29 C29        22.5378    6.3731   12.7549 C.cat       1 FA4       0.2900
     30 N30        22.7297    7.6147   13.0314 N.pl3       1 FA4      -0.2847
     31 N31        21.3829    5.8851   12.9770 N.pl3       1 FA4      -0.2847
     32 O32        31.4877   11.8101   15.1320 O.3         1 FA4      -0.2717
     33 O33        34.1112   11.6801   15.0737 O.2         1 FA4      -0.3944
     34 H1         22.9680    1.0110   16.0760 H           1 FA4       0.0541
     35 H2         24.7380    2.6179   16.1640 H           1 FA4       0.0537
     36 H3         21.8363    2.3969   12.3007 H           1 FA4       0.0538
     37 H4         21.5354    0.8795   14.1274 H           1 FA4       0.0541
     38 H5         25.9182    4.4449   15.4084 H           1 FA4       0.0411
     39 H6         25.2500    5.4507   14.1703 H           1 FA4       0.0411
     40 H7         26.6109    4.4916   12.4604 H           1 FA4       0.0286
     41 H8         26.7418    2.9485   13.2978 H           1 FA4       0.0286
     42 H9         28.8802    3.9638   13.3089 H           1 FA4       0.0267
     43 H10        28.2841    3.9420   14.9498 H           1 FA4       0.0267
     44 H11        27.6235    6.5286   13.6029 H           1 FA4       0.0265
     45 H12        29.3055    6.1598   13.4289 H           1 FA4       0.0265
     46 H13        29.1281    5.7375   16.1302 H           1 FA4       0.0265
     47 H14        27.6961    6.7182   15.9422 H           1 FA4       0.0265
     48 H15        29.1005    8.4931   16.2684 H           1 FA4       0.0265
     49 H16        29.5566    8.2883   14.5875 H           1 FA4       0.0265
     50 H17        31.0601    7.5155   17.1080 H           1 FA4       0.0267
     51 H18        31.5642    8.5058   15.7666 H           1 FA4       0.0267
     52 H19        31.2380    5.9067   14.5975 H           1 FA4       0.0290
     53 H20        31.8085    5.5562   16.1941 H           1 FA4       0.0290
     54 H21        33.5795    5.6421   14.4554 H           1 FA4       0.0502
     55 H22        33.8509    6.7594   15.7921 H           1 FA4       0.0502
     56 H23        34.5158    8.7022   15.1047 H           1 FA4       0.1882
     57 H24        33.6012    9.8918   12.5558 H           1 FA4       0.0799
     58 H25        36.2346   10.2110   14.0850 H           1 FA4       0.0312
     59 H26        35.6784   11.2806   12.8012 H           1 FA4       0.0312
     60 H27        31.6481   10.3971   13.7721 H           1 FA4       0.2217
     61 H28        35.5614    9.1881   11.2772 H           1 FA4       0.0269
     62 H29        36.4096    8.3225   12.5627 H           1 FA4       0.0269
     63 H30        38.3357    9.8498   12.3798 H           1 FA4       0.0317
     64 H31        37.4862   10.8720   11.2177 H           1 FA4       0.0317
     65 H32        38.1970    7.9492   10.6473 H           1 FA4       0.0813
     66 H33        39.2262    9.3189   10.2163 H           1 FA4       0.0813
     67 H34        37.8403    8.5716    8.4281 H           1 FA4       0.1994
     68 H35        37.5481   10.1665    8.8243 H           1 FA4       0.1994
     69 H36        36.4655    8.9785    9.2749 H           1 FA4       0.1994
     70 H37        22.8306    4.1821   11.2023 H           1 FA4       0.0839
     71 H38        24.5525    4.1826   11.4628 H           1 FA4       0.0839
     72 H39        24.3259    6.2256   12.1623 H           1 FA4       0.2664
     73 H40        22.0346    8.1333   13.3747 H           1 FA4       0.2615
     74 H41        23.5708    7.9838   12.8836 H           1 FA4       0.2615
     75 H42        21.2071    4.9856   12.7909 H           1 FA4       0.2615
     76 H43        20.7010    6.4253   13.3228 H           1 FA4       0.2615
     77 H44        30.6030   11.3997   15.2168 H           1 FA4       0.2490
@<TRIPOS>BOND
     1     1     2  ar
     2     1     6  ar
     3     2     3  ar
     4     3     4  ar
     5     3     7   1
     6     4     5  ar
     7     4    27   1
     8     5     6  ar
     9     7     8   1
    10     8     9   1
    11     9    10   1
    12    10    11   1
    13    11    12   1
    14    12    13   1
    15    13    14   1
    16    14    15   1
    17    15    16   1
    18    16    17  am
    19    16    19   2
    20    17    18   1
    21    18    20   1
    22    18    21   1
    23    20    23   1
    24    21    22  am
    25    21    33   2
    26    22    32   1
    27    23    24   1
    28    24    25   1
    29    25    26   1
    30    27    28   1
    31    28    29  ar
    32    29    30  ar
    33    29    31  ar
    34     1    34   1
    35     2    35   1
    36     5    36   1
    37     6    37   1
    38     7    38   1
    39     7    39   1
    40     8    40   1
    41     8    41   1
    42     9    42   1
    43     9    43   1
    44    10    44   1
    45    10    45   1
    46    11    46   1
    47    11    47   1
    48    12    48   1
    49    12    49   1
    50    13    50   1
    51    13    51   1
    52    14    52   1
    53    14    53   1
    54    15    54   1
    55    15    55   1
    56    17    56   1
    57    18    57   1
    58    20    58   1
    59    20    59   1
    60    22    60   1
    61    23    61   1
    62    23    62   1
    63    24    63   1
    64    24    64   1
    65    25    65   1
    66    25    66   1
    67    26    67   1
    68    26    68   1
    69    26    69   1
    70    27    70   1
    71    27    71   1
    72    28    72   1
    73    30    73   1
    74    30    74   1
    75    31    75   1
    76    31    76   1
    77    32    77   1
@<TRIPOS>SUBSTRUCTURE
     1  FA4      1

