@<TRIPOS>MOLECULE
2d1o_ligand_002
    77    77
SMALL
GAST_HUCK
****
This file was generated by PARSER (from files_GN.cpp)

@<TRIPOS>ATOM
      1 C1         25.0175    1.4799   15.3919 C.ar        1 FA4      -0.0755
      2 C2         25.9853    2.2348   14.7226 C.ar        1 FA4      -0.0668
      3 C3         25.6327    3.1824   13.7258 C.ar        1 FA4      -0.0377
      4 C4         24.2412    3.3792   13.4293 C.ar        1 FA4      -0.0050
      5 C5         23.2827    2.5771   14.1085 C.ar        1 FA4      -0.0635
      6 C6         23.6580    1.6426   15.0809 C.ar        1 FA4      -0.0754
      7 C7         26.7533    3.8737   12.9940 C.3         1 FA4      -0.0215
      8 C8         26.8175    5.4243   13.1666 C.3         1 FA4      -0.0443
      9 C9         28.1883    6.0371   13.5793 C.3         1 FA4      -0.0514
     10 C10        28.4145    6.1394   15.1180 C.3         1 FA4      -0.0529
     11 C11        29.4085    7.2767   15.5241 C.3         1 FA4      -0.0530
     12 C12        29.0942    7.9065   16.9143 C.3         1 FA4      -0.0529
     13 C13        29.8608    9.2450   17.1986 C.3         1 FA4      -0.0510
     14 C14        31.1812    9.1172   18.0236 C.3         1 FA4      -0.0361
     15 C15        32.1247    7.9187   17.7006 C.3         1 FA4       0.0374
     16 C16        33.1905    8.1401   16.7377 C.2         1 FA4       0.1782
     17 N17        33.0264    8.9350   15.6940 N.am        1 FA4      -0.2657
     18 C18        33.9550    9.1947   14.6227 C.3         1 FA4       0.1325
     19 O19        34.1750    7.4102   16.8109 O.2         1 FA4      -0.3969
     20 C20        34.0695   10.7467   14.4691 C.3         1 FA4      -0.0123
     21 C21        33.4489    8.4998   13.4457 C.2         1 FA4       0.2244
     22 N22        34.0280    7.3916   13.0026 N.am        1 FA4      -0.1623
     23 C23        34.5596   11.2449   13.0759 C.3         1 FA4      -0.0440
     24 C24        34.2799   12.7521   12.7632 C.3         1 FA4      -0.0124
     25 C25        32.8424   13.2577   13.1212 C.3         1 FA4      -0.0354
     26 N26        32.2713   14.1446   12.0905 N.4         1 FA4       0.2185
     27 C27        23.7281    4.3646   12.4210 C.3         1 FA4       0.0939
     28 N28        23.7518    5.6969   12.8610 N.pl3       1 FA4      -0.2620
     29 C29        23.0487    6.2504   13.7831 C.cat       1 FA4       0.2900
     30 N30        23.2849    7.4832   14.0236 N.pl3       1 FA4      -0.2847
     31 N31        22.1384    5.6771   14.4622 N.pl3       1 FA4      -0.2847
     32 O32        33.5974    6.7926   11.9303 O.3         1 FA4      -0.2717
     33 O33        32.4463    8.9233   12.8720 O.2         1 FA4      -0.3944
     34 H1         25.2964    0.7942   16.1026 H           1 FA4       0.0541
     35 H2         26.9679    2.0708   14.9598 H           1 FA4       0.0537
     36 H3         22.2856    2.6710   13.8983 H           1 FA4       0.0538
     37 H4         22.9544    1.0838   15.5592 H           1 FA4       0.0541
     38 H5         26.6505    3.6282   11.9304 H           1 FA4       0.0411
     39 H6         27.7207    3.4554   13.2870 H           1 FA4       0.0411
     40 H7         26.0685    5.7484   13.8912 H           1 FA4       0.0286
     41 H8         26.5389    5.8649   12.2046 H           1 FA4       0.0286
     42 H9         28.2136    7.0423   13.1530 H           1 FA4       0.0267
     43 H10        29.0071    5.4691   13.1214 H           1 FA4       0.0267
     44 H11        28.7934    5.1837   15.4927 H           1 FA4       0.0265
     45 H12        27.4564    6.3223   15.5984 H           1 FA4       0.0265
     46 H13        29.3708    8.0861   14.7891 H           1 FA4       0.0265
     47 H14        30.4334    6.8853   15.5381 H           1 FA4       0.0265
     48 H15        29.2975    7.1788   17.7082 H           1 FA4       0.0265
     49 H16        28.0201    8.1335   16.9489 H           1 FA4       0.0265
     50 H17        29.1912    9.8963   17.7922 H           1 FA4       0.0267
     51 H18        30.0468    9.7863   16.2716 H           1 FA4       0.0267
     52 H19        30.8814    9.0314   19.0746 H           1 FA4       0.0290
     53 H20        31.7405   10.0534   17.9292 H           1 FA4       0.0290
     54 H21        31.5251    7.0594   17.3759 H           1 FA4       0.0502
     55 H22        32.5808    7.6458   18.6592 H           1 FA4       0.0502
     56 H23        32.1731    9.3814   15.6222 H           1 FA4       0.1882
     57 H24        34.9552    8.8195   14.8674 H           1 FA4       0.0799
     58 H25        34.7641   11.1281   15.2225 H           1 FA4       0.0312
     59 H26        33.0892   11.1902   14.6718 H           1 FA4       0.0312
     60 H27        34.7806    7.0226   13.5001 H           1 FA4       0.2217
     61 H28        34.0760   10.6656   12.2802 H           1 FA4       0.0269
     62 H29        35.6379   11.0719   12.9908 H           1 FA4       0.0269
     63 H30        34.4492   12.8930   11.6848 H           1 FA4       0.0317
     64 H31        35.0195   13.3676   13.2895 H           1 FA4       0.0317
     65 H32        32.8871   13.8026   14.0718 H           1 FA4       0.0813
     66 H33        32.1554   12.4168   13.2372 H           1 FA4       0.0813
     67 H34        31.4915   14.6650   12.5067 H           1 FA4       0.1994
     68 H35        31.9198   13.5527   11.3323 H           1 FA4       0.1994
     69 H36        32.9855   14.7968   11.7520 H           1 FA4       0.1994
     70 H37        22.7126    4.1222   12.0966 H           1 FA4       0.0839
     71 H38        24.3440    4.2961   11.5247 H           1 FA4       0.0839
     72 H39        24.3617    6.2609   12.4321 H           1 FA4       0.2664
     73 H40        22.8057    7.9330   14.6850 H           1 FA4       0.2615
     74 H41        23.9512    7.9247   13.5426 H           1 FA4       0.2615
     75 H42        21.9216    4.7791   14.3080 H           1 FA4       0.2615
     76 H43        21.6701    6.1538   15.1167 H           1 FA4       0.2615
     77 H44        33.9812    5.8872   11.9725 H           1 FA4       0.2490
@<TRIPOS>BOND
     1     1     2  ar
     2     1     6  ar
     3     2     3  ar
     4     3     4  ar
     5     3     7   1
     6     4     5  ar
     7     4    27   1
     8     5     6  ar
     9     7     8   1
    10     8     9   1
    11     9    10   1
    12    10    11   1
    13    11    12   1
    14    12    13   1
    15    13    14   1
    16    14    15   1
    17    15    16   1
    18    16    17  am
    19    16    19   2
    20    17    18   1
    21    18    20   1
    22    18    21   1
    23    20    23   1
    24    21    22  am
    25    21    33   2
    26    22    32   1
    27    23    24   1
    28    24    25   1
    29    25    26   1
    30    27    28   1
    31    28    29  ar
    32    29    30  ar
    33    29    31  ar
    34     1    34   1
    35     2    35   1
    36     5    36   1
    37     6    37   1
    38     7    38   1
    39     7    39   1
    40     8    40   1
    41     8    41   1
    42     9    42   1
    43     9    43   1
    44    10    44   1
    45    10    45   1
    46    11    46   1
    47    11    47   1
    48    12    48   1
    49    12    49   1
    50    13    50   1
    51    13    51   1
    52    14    52   1
    53    14    53   1
    54    15    54   1
    55    15    55   1
    56    17    56   1
    57    18    57   1
    58    20    58   1
    59    20    59   1
    60    22    60   1
    61    23    61   1
    62    23    62   1
    63    24    63   1
    64    24    64   1
    65    25    65   1
    66    25    66   1
    67    26    67   1
    68    26    68   1
    69    26    69   1
    70    27    70   1
    71    27    71   1
    72    28    72   1
    73    30    73   1
    74    30    74   1
    75    31    75   1
    76    31    76   1
    77    32    77   1
@<TRIPOS>SUBSTRUCTURE
     1  FA4      1

