@<TRIPOS>MOLECULE
2d1o_ligand_009
    77    77
SMALL
GAST_HUCK
****
This file was generated by PARSER (from files_GN.cpp)

@<TRIPOS>ATOM
      1 C1         22.9327    4.2165   16.4031 C.ar        1 FA4      -0.0755
      2 C2         24.1054    3.4498   16.3239 C.ar        1 FA4      -0.0668
      3 C3         24.6271    2.9959   15.0848 C.ar        1 FA4      -0.0377
      4 C4         23.9251    3.3552   13.8844 C.ar        1 FA4      -0.0050
      5 C5         22.7331    4.1210   13.9853 C.ar        1 FA4      -0.0635
      6 C6         22.2323    4.5418   15.2265 C.ar        1 FA4      -0.0754
      7 C7         25.8100    2.0830   15.1608 C.3         1 FA4      -0.0215
      8 C8         27.1920    2.7662   15.3576 C.3         1 FA4      -0.0443
      9 C9         27.8438    3.3364   14.0553 C.3         1 FA4      -0.0514
     10 C10        27.3953    4.7848   13.6834 C.3         1 FA4      -0.0529
     11 C11        28.4358    5.8951   14.0106 C.3         1 FA4      -0.0530
     12 C12        28.8076    6.0433   15.5131 C.3         1 FA4      -0.0529
     13 C13        29.9536    7.0702   15.7352 C.3         1 FA4      -0.0510
     14 C14        30.7016    6.8758   17.0866 C.3         1 FA4      -0.0361
     15 C15        31.7055    8.0150   17.4080 C.3         1 FA4       0.0374
     16 C16        32.8672    8.0258   16.5349 C.2         1 FA4       0.1782
     17 N17        33.0024    8.9751   15.6119 N.am        1 FA4      -0.2657
     18 C18        34.0168    9.0555   14.5977 C.3         1 FA4       0.1325
     19 O19        33.6498    7.0808   16.5998 O.2         1 FA4      -0.3969
     20 C20        34.5163   10.5244   14.4016 C.3         1 FA4      -0.0123
     21 C21        33.5214    8.4208   13.3798 C.2         1 FA4       0.2244
     22 N22        34.1241    7.3670   12.8546 N.am        1 FA4      -0.1623
     23 C23        33.8315   11.3893   13.2993 C.3         1 FA4      -0.0440
     24 C24        34.3042   12.8664   13.3057 C.3         1 FA4      -0.0124
     25 C25        34.2471   13.5785   11.9218 C.3         1 FA4      -0.0354
     26 N26        32.9341   14.1654   11.6270 N.4         1 FA4       0.2185
     27 C27        24.4328    3.0740   12.5093 C.3         1 FA4       0.0939
     28 N28        24.9680    1.8103   12.2856 N.pl3       1 FA4      -0.2620
     29 C29        24.3727    0.6740   12.2434 C.cat       1 FA4       0.2900
     30 N30        25.1144   -0.3337   11.9777 N.pl3       1 FA4      -0.2847
     31 N31        23.1183    0.4955   12.4289 N.pl3       1 FA4      -0.2847
     32 O32        33.6573    6.7845   11.7909 O.3         1 FA4      -0.2717
     33 O33        32.4904    8.8285   12.8545 O.2         1 FA4      -0.3944
     34 H1         22.5704    4.5270   17.3107 H           1 FA4       0.0541
     35 H2         24.5738    3.2086   17.1970 H           1 FA4       0.0537
     36 H3         22.2095    4.3969   13.1534 H           1 FA4       0.0538
     37 H4         21.3697    5.0905   15.2824 H           1 FA4       0.0541
     38 H5         25.8822    1.4290   14.2949 H           1 FA4       0.0411
     39 H6         25.6467    1.3978   16.0030 H           1 FA4       0.0411
     40 H7         27.8642    1.9897   15.7358 H           1 FA4       0.0286
     41 H8         27.1304    3.5383   16.1274 H           1 FA4       0.0286
     42 H9         27.6260    2.6623   13.2237 H           1 FA4       0.0267
     43 H10        28.9293    3.3161   14.1730 H           1 FA4       0.0267
     44 H11        26.4478    5.0343   14.1613 H           1 FA4       0.0265
     45 H12        27.2310    4.8246   12.6025 H           1 FA4       0.0265
     46 H13        28.0280    6.8475   13.6607 H           1 FA4       0.0265
     47 H14        29.3432    5.6961   13.4352 H           1 FA4       0.0265
     48 H15        29.1292    5.0706   15.8988 H           1 FA4       0.0265
     49 H16        27.9217    6.3573   16.0765 H           1 FA4       0.0265
     50 H17        29.5352    8.0799   15.6935 H           1 FA4       0.0267
     51 H18        30.6793    6.9656   14.9256 H           1 FA4       0.0267
     52 H19        31.2312    5.9151   17.0760 H           1 FA4       0.0290
     53 H20        29.9633    6.8378   17.8958 H           1 FA4       0.0290
     54 H21        32.0491    7.9001   18.4434 H           1 FA4       0.0502
     55 H22        31.1757    8.9750   17.3591 H           1 FA4       0.0502
     56 H23        32.3046    9.6476   15.5698 H           1 FA4       0.1882
     57 H24        34.9043    8.4989   14.9373 H           1 FA4       0.0799
     58 H25        35.5823   10.4908   14.1602 H           1 FA4       0.0312
     59 H26        34.4254   11.0459   15.3592 H           1 FA4       0.0312
     60 H27        34.9154    7.0095   13.2817 H           1 FA4       0.2217
     61 H28        32.7461   11.3700   13.4278 H           1 FA4       0.0269
     62 H29        34.0771   10.9467   12.3267 H           1 FA4       0.0269
     63 H30        35.3427   12.9153   13.6488 H           1 FA4       0.0317
     64 H31        33.6970   13.4405   14.0219 H           1 FA4       0.0317
     65 H32        34.5084   12.8758   11.1274 H           1 FA4       0.0813
     66 H33        34.9784   14.3824   11.9138 H           1 FA4       0.0813
     67 H34        33.0322   14.8322   10.8550 H           1 FA4       0.1994
     68 H35        32.5685   14.6613   12.4461 H           1 FA4       0.1994
     69 H36        32.2734   13.4406   11.3373 H           1 FA4       0.1994
     70 H37        25.2169    3.8052   12.2992 H           1 FA4       0.0839
     71 H38        23.6638    3.2361   11.7425 H           1 FA4       0.0839
     72 H39        25.8937    1.7871   12.1239 H           1 FA4       0.2664
     73 H40        24.7450   -1.1910   11.9134 H           1 FA4       0.2615
     74 H41        26.0344   -0.2096   11.8466 H           1 FA4       0.2615
     75 H42        22.5617    1.2226   12.6093 H           1 FA4       0.2615
     76 H43        22.7669   -0.3691   12.4054 H           1 FA4       0.2615
     77 H44        33.9824    5.8620   11.8231 H           1 FA4       0.2490
@<TRIPOS>BOND
     1     1     2  ar
     2     1     6  ar
     3     2     3  ar
     4     3     4  ar
     5     3     7   1
     6     4     5  ar
     7     4    27   1
     8     5     6  ar
     9     7     8   1
    10     8     9   1
    11     9    10   1
    12    10    11   1
    13    11    12   1
    14    12    13   1
    15    13    14   1
    16    14    15   1
    17    15    16   1
    18    16    17  am
    19    16    19   2
    20    17    18   1
    21    18    20   1
    22    18    21   1
    23    20    23   1
    24    21    22  am
    25    21    33   2
    26    22    32   1
    27    23    24   1
    28    24    25   1
    29    25    26   1
    30    27    28   1
    31    28    29  ar
    32    29    30  ar
    33    29    31  ar
    34     1    34   1
    35     2    35   1
    36     5    36   1
    37     6    37   1
    38     7    38   1
    39     7    39   1
    40     8    40   1
    41     8    41   1
    42     9    42   1
    43     9    43   1
    44    10    44   1
    45    10    45   1
    46    11    46   1
    47    11    47   1
    48    12    48   1
    49    12    49   1
    50    13    50   1
    51    13    51   1
    52    14    52   1
    53    14    53   1
    54    15    54   1
    55    15    55   1
    56    17    56   1
    57    18    57   1
    58    20    58   1
    59    20    59   1
    60    22    60   1
    61    23    61   1
    62    23    62   1
    63    24    63   1
    64    24    64   1
    65    25    65   1
    66    25    66   1
    67    26    67   1
    68    26    68   1
    69    26    69   1
    70    27    70   1
    71    27    71   1
    72    28    72   1
    73    30    73   1
    74    30    74   1
    75    31    75   1
    76    31    76   1
    77    32    77   1
@<TRIPOS>SUBSTRUCTURE
     1  FA4      1

