@<TRIPOS>MOLECULE
2d1o_ligand_058
    77    77
SMALL
GAST_HUCK
****
This file was generated by PARSER (from files_GN.cpp)

@<TRIPOS>ATOM
      1 C1         27.7564   10.3139   23.1685 C.ar        1 FA4      -0.0755
      2 C2         27.6756   11.2119   22.0934 C.ar        1 FA4      -0.0668
      3 C3         28.8415   11.7259   21.4700 C.ar        1 FA4      -0.0377
      4 C4         30.1182   11.4032   22.0323 C.ar        1 FA4      -0.0050
      5 C5         30.1757   10.4775   23.1064 C.ar        1 FA4      -0.0635
      6 C6         29.0097    9.9288   23.6627 C.ar        1 FA4      -0.0754
      7 C7         28.6467   12.5602   20.2391 C.3         1 FA4      -0.0215
      8 C8         27.8248   11.8917   19.0859 C.3         1 FA4      -0.0443
      9 C9         27.9626   10.3487   18.9086 C.3         1 FA4      -0.0514
     10 C10        29.4149    9.8373   18.7116 C.3         1 FA4      -0.0529
     11 C11        29.8436    8.7293   19.7213 C.3         1 FA4      -0.0530
     12 C12        29.4617    7.2571   19.3872 C.3         1 FA4      -0.0529
     13 C13        29.4587    6.7937   17.9002 C.3         1 FA4      -0.0510
     14 C14        30.8375    6.6510   17.1828 C.3         1 FA4      -0.0361
     15 C15        31.9209    7.7066   17.5501 C.3         1 FA4       0.0374
     16 C16        33.0126    7.8079   16.6040 C.2         1 FA4       0.1782
     17 N17        32.8855    8.6477   15.5848 N.am        1 FA4      -0.2657
     18 C18        33.8867    9.0432   14.6433 C.3         1 FA4       0.1325
     19 O19        34.0437    7.1773   16.8096 O.2         1 FA4      -0.3969
     20 C20        34.1023   10.5921   14.6902 C.3         1 FA4      -0.0123
     21 C21        33.5100    8.4985   13.3466 C.2         1 FA4       0.2244
     22 N22        34.0686    7.3889   12.8918 N.am        1 FA4      -0.1623
     23 C23        32.9750   11.5825   14.2616 C.3         1 FA4      -0.0440
     24 C24        31.5899   11.4055   14.9512 C.3         1 FA4      -0.0124
     25 C25        30.6886   12.6597   14.8015 C.3         1 FA4      -0.0354
     26 N26        29.5470   12.6126   15.7251 N.4         1 FA4       0.2185
     27 C27        31.4083   12.0160   21.5718 C.3         1 FA4       0.0939
     28 N28        31.3868   13.4178   21.5955 N.pl3       1 FA4      -0.2620
     29 C29        31.4805   14.1921   22.6116 C.cat       1 FA4       0.2900
     30 N30        31.4159   15.4505   22.4052 N.pl3       1 FA4      -0.2847
     31 N31        31.6463   13.7938   23.8149 N.pl3       1 FA4      -0.2847
     32 O32        33.6235    6.8111   11.8086 O.3         1 FA4      -0.2717
     33 O33        32.5460    8.9744   12.7606 O.2         1 FA4      -0.3944
     34 H1         26.9033    9.9284   23.5844 H           1 FA4       0.0541
     35 H2         26.7456   11.4598   21.7433 H           1 FA4       0.0537
     36 H3         31.0716   10.1914   23.5034 H           1 FA4       0.0538
     37 H4         29.0740    9.2639   24.4366 H           1 FA4       0.0541
     38 H5         29.5980   12.8714   19.8109 H           1 FA4       0.0411
     39 H6         28.1371   13.4820   20.5358 H           1 FA4       0.0411
     40 H7         28.0907   12.3764   18.1416 H           1 FA4       0.0286
     41 H8         26.7673   12.1115   19.2620 H           1 FA4       0.0286
     42 H9         27.3792   10.0453   18.0362 H           1 FA4       0.0267
     43 H10        27.5038    9.8713   19.7761 H           1 FA4       0.0267
     44 H11        30.1055   10.6647   18.8476 H           1 FA4       0.0265
     45 H12        29.5398    9.5025   17.6806 H           1 FA4       0.0265
     46 H13        29.4235    8.9701   20.7050 H           1 FA4       0.0265
     47 H14        30.9203    8.7936   19.8566 H           1 FA4       0.0265
     48 H15        28.4585    7.0896   19.7901 H           1 FA4       0.0265
     49 H16        30.1372    6.6019   19.9462 H           1 FA4       0.0265
     50 H17        28.8060    7.4442   17.3122 H           1 FA4       0.0267
     51 H18        29.0026    5.7985   17.8838 H           1 FA4       0.0267
     52 H19        30.6395    6.6944   16.1047 H           1 FA4       0.0290
     53 H20        31.2401    5.6537   17.3955 H           1 FA4       0.0290
     54 H21        32.3276    7.4460   18.5336 H           1 FA4       0.0502
     55 H22        31.4638    8.6969   17.6355 H           1 FA4       0.0502
     56 H23        32.0094    9.0513   15.4804 H           1 FA4       0.1882
     57 H24        34.8562    8.6102   14.9295 H           1 FA4       0.0799
     58 H25        34.9703   10.8115   14.0613 H           1 FA4       0.0312
     59 H26        34.3881   10.8556   15.7155 H           1 FA4       0.0312
     60 H27        34.7595    6.9499   13.4227 H           1 FA4       0.2217
     61 H28        32.8406   11.5424   13.1770 H           1 FA4       0.0269
     62 H29        33.3383   12.5897   14.5026 H           1 FA4       0.0269
     63 H30        31.7396   11.2010   16.0183 H           1 FA4       0.0317
     64 H31        31.0567   10.5611   14.5017 H           1 FA4       0.0317
     65 H32        30.3042   12.7230   13.7786 H           1 FA4       0.0813
     66 H33        31.2693   13.5601   15.0167 H           1 FA4       0.0813
     67 H34        29.0020   13.4728   15.6263 H           1 FA4       0.1994
     68 H35        29.8845   12.5363   16.6872 H           1 FA4       0.1994
     69 H36        28.9476   11.8085   15.5072 H           1 FA4       0.1994
     70 H37        31.6075   11.7036   20.5493 H           1 FA4       0.0839
     71 H38        32.2689   11.6702   22.1515 H           1 FA4       0.0839
     72 H39        31.2965   13.8385   20.7627 H           1 FA4       0.2664
     73 H40        31.4836   16.0485   23.1211 H           1 FA4       0.2615
     74 H41        31.3000   15.7784   21.5367 H           1 FA4       0.2615
     75 H42        31.7334   12.8809   24.0021 H           1 FA4       0.2615
     76 H43        31.7077   14.4175   24.5103 H           1 FA4       0.2615
     77 H44        33.9774    5.8975   11.8426 H           1 FA4       0.2490
@<TRIPOS>BOND
     1     1     2  ar
     2     1     6  ar
     3     2     3  ar
     4     3     4  ar
     5     3     7   1
     6     4     5  ar
     7     4    27   1
     8     5     6  ar
     9     7     8   1
    10     8     9   1
    11     9    10   1
    12    10    11   1
    13    11    12   1
    14    12    13   1
    15    13    14   1
    16    14    15   1
    17    15    16   1
    18    16    17  am
    19    16    19   2
    20    17    18   1
    21    18    20   1
    22    18    21   1
    23    20    23   1
    24    21    22  am
    25    21    33   2
    26    22    32   1
    27    23    24   1
    28    24    25   1
    29    25    26   1
    30    27    28   1
    31    28    29  ar
    32    29    30  ar
    33    29    31  ar
    34     1    34   1
    35     2    35   1
    36     5    36   1
    37     6    37   1
    38     7    38   1
    39     7    39   1
    40     8    40   1
    41     8    41   1
    42     9    42   1
    43     9    43   1
    44    10    44   1
    45    10    45   1
    46    11    46   1
    47    11    47   1
    48    12    48   1
    49    12    49   1
    50    13    50   1
    51    13    51   1
    52    14    52   1
    53    14    53   1
    54    15    54   1
    55    15    55   1
    56    17    56   1
    57    18    57   1
    58    20    58   1
    59    20    59   1
    60    22    60   1
    61    23    61   1
    62    23    62   1
    63    24    63   1
    64    24    64   1
    65    25    65   1
    66    25    66   1
    67    26    67   1
    68    26    68   1
    69    26    69   1
    70    27    70   1
    71    27    71   1
    72    28    72   1
    73    30    73   1
    74    30    74   1
    75    31    75   1
    76    31    76   1
    77    32    77   1
@<TRIPOS>SUBSTRUCTURE
     1  FA4      1

