@<TRIPOS>MOLECULE
2d1o_ligand_005
    77    77
SMALL
GAST_HUCK
****
This file was generated by PARSER (from files_GN.cpp)

@<TRIPOS>ATOM
      1 C1         23.2229    2.6593   16.4238 C.ar        1 FA4      -0.0755
      2 C2         23.4750    1.8483   15.3068 C.ar        1 FA4      -0.0668
      3 C3         23.4687    2.3770   13.9863 C.ar        1 FA4      -0.0377
      4 C4         23.1521    3.7650   13.7977 C.ar        1 FA4      -0.0050
      5 C5         22.8666    4.5511   14.9501 C.ar        1 FA4      -0.0635
      6 C6         22.9110    4.0138   16.2469 C.ar        1 FA4      -0.0754
      7 C7         23.8271    1.4242   12.8924 C.3         1 FA4      -0.0215
      8 C8         25.3382    1.0412   12.8163 C.3         1 FA4      -0.0443
      9 C9         26.3721    2.2149   12.7942 C.3         1 FA4      -0.0514
     10 C10        27.0678    2.5130   14.1695 C.3         1 FA4      -0.0529
     11 C11        26.7699    3.9188   14.7779 C.3         1 FA4      -0.0530
     12 C12        27.8629    4.9969   14.5155 C.3         1 FA4      -0.0529
     13 C13        28.5213    5.5549   15.8112 C.3         1 FA4      -0.0510
     14 C14        29.8551    6.3048   15.5295 C.3         1 FA4      -0.0361
     15 C15        30.7206    6.5402   16.8037 C.3         1 FA4       0.0374
     16 C16        32.0125    7.1107   16.4632 C.2         1 FA4       0.1782
     17 N17        32.0830    8.1916   15.6948 N.am        1 FA4      -0.2657
     18 C18        33.2422    8.6805   14.9961 C.3         1 FA4       0.1325
     19 O19        33.0229    6.4830   16.7710 O.2         1 FA4      -0.3969
     20 C20        33.5172   10.2009   15.2183 C.3         1 FA4      -0.0123
     21 C21        33.1095    8.2829   13.5996 C.2         1 FA4       0.2244
     22 N22        33.8396    7.2982   13.1040 N.am        1 FA4      -0.1623
     23 C23        32.5329   11.2967   14.7027 C.3         1 FA4      -0.0440
     24 C24        31.2533   11.4979   15.5616 C.3         1 FA4      -0.0124
     25 C25        30.4452   12.7568   15.1524 C.3         1 FA4      -0.0354
     26 N26        29.1608   12.8159   15.8613 N.4         1 FA4       0.2185
     27 C27        23.1595    4.5075   12.4979 C.3         1 FA4       0.0939
     28 N28        21.8818    5.0132   12.2263 N.pl3       1 FA4      -0.2620
     29 C29        21.4851    6.2378   12.2113 C.cat       1 FA4       0.2900
     30 N30        20.2578    6.4459   11.9541 N.pl3       1 FA4      -0.2847
     31 N31        22.2257    7.2640   12.4407 N.pl3       1 FA4      -0.2847
     32 O32        33.6064    6.8072   11.9200 O.3         1 FA4      -0.2717
     33 O33        32.2042    8.7539   12.9203 O.2         1 FA4      -0.3944
     34 H1         23.2707    2.2593   17.3683 H           1 FA4       0.0541
     35 H2         23.7015    0.8602   15.4709 H           1 FA4       0.0537
     36 H3         22.6525    5.5513   14.8608 H           1 FA4       0.0538
     37 H4         22.7184    4.6079   17.0625 H           1 FA4       0.0541
     38 H5         23.5079    1.7851   11.9175 H           1 FA4       0.0411
     39 H6         23.2566    0.5040   13.0509 H           1 FA4       0.0411
     40 H7         25.4753    0.4501   11.9087 H           1 FA4       0.0286
     41 H8         25.5756    0.3763   13.6482 H           1 FA4       0.0286
     42 H9         25.8853    3.1077   12.4027 H           1 FA4       0.0267
     43 H10        27.1608    1.9685   12.0765 H           1 FA4       0.0267
     44 H11        28.1505    2.3917   14.0697 H           1 FA4       0.0265
     45 H12        26.7688    1.7661   14.9051 H           1 FA4       0.0265
     46 H13        26.6130    3.8133   15.8594 H           1 FA4       0.0265
     47 H14        25.8296    4.2919   14.3759 H           1 FA4       0.0265
     48 H15        27.4014    5.8438   13.9960 H           1 FA4       0.0265
     49 H16        28.6354    4.5923   13.8550 H           1 FA4       0.0265
     50 H17        28.7169    4.7343   16.5129 H           1 FA4       0.0267
     51 H18        27.8135    6.2438   16.2856 H           1 FA4       0.0267
     52 H19        29.6357    7.2820   15.0815 H           1 FA4       0.0290
     53 H20        30.4322    5.7203   14.8003 H           1 FA4       0.0290
     54 H21        30.8448    5.5848   17.3282 H           1 FA4       0.0502
     55 H22        30.1997    7.2246   17.4823 H           1 FA4       0.0502
     56 H23        31.2369    8.6084   15.4678 H           1 FA4       0.1882
     57 H24        34.1356    8.1863   15.4017 H           1 FA4       0.0799
     58 H25        34.4845   10.4137   14.7509 H           1 FA4       0.0312
     59 H26        33.6551   10.3557   16.2935 H           1 FA4       0.0312
     60 H27        34.5181    6.8789   13.6616 H           1 FA4       0.2217
     61 H28        32.2486   11.0936   13.6665 H           1 FA4       0.0269
     62 H29        33.0862   12.2455   14.7075 H           1 FA4       0.0269
     63 H30        31.5307   11.5918   16.6175 H           1 FA4       0.0317
     64 H31        30.6073   10.6259   15.4501 H           1 FA4       0.0317
     65 H32        30.2425   12.7443   14.0790 H           1 FA4       0.0813
     66 H33        31.0033   13.6657   15.3878 H           1 FA4       0.0813
     67 H34        28.6661   13.6753   15.6055 H           1 FA4       0.1994
     68 H35        29.3170   12.8032   16.8730 H           1 FA4       0.1994
     69 H36        28.5966   12.0073   15.5926 H           1 FA4       0.1994
     70 H37        23.4464    3.8932   11.6485 H           1 FA4       0.0839
     71 H38        23.9211    5.2884   12.5682 H           1 FA4       0.0839
     72 H39        21.2219    4.3725   12.0455 H           1 FA4       0.2664
     73 H40        19.9168    7.3200   11.9514 H           1 FA4       0.2615
     74 H41        19.6822    5.7236   11.7864 H           1 FA4       0.2615
     75 H42        23.1346    7.1727   12.6308 H           1 FA4       0.2615
     76 H43        21.8429    8.1150   12.4199 H           1 FA4       0.2615
     77 H44        33.9578    5.8892   11.9487 H           1 FA4       0.2490
@<TRIPOS>BOND
     1     1     2  ar
     2     1     6  ar
     3     2     3  ar
     4     3     4  ar
     5     3     7   1
     6     4     5  ar
     7     4    27   1
     8     5     6  ar
     9     7     8   1
    10     8     9   1
    11     9    10   1
    12    10    11   1
    13    11    12   1
    14    12    13   1
    15    13    14   1
    16    14    15   1
    17    15    16   1
    18    16    17  am
    19    16    19   2
    20    17    18   1
    21    18    20   1
    22    18    21   1
    23    20    23   1
    24    21    22  am
    25    21    33   2
    26    22    32   1
    27    23    24   1
    28    24    25   1
    29    25    26   1
    30    27    28   1
    31    28    29  ar
    32    29    30  ar
    33    29    31  ar
    34     1    34   1
    35     2    35   1
    36     5    36   1
    37     6    37   1
    38     7    38   1
    39     7    39   1
    40     8    40   1
    41     8    41   1
    42     9    42   1
    43     9    43   1
    44    10    44   1
    45    10    45   1
    46    11    46   1
    47    11    47   1
    48    12    48   1
    49    12    49   1
    50    13    50   1
    51    13    51   1
    52    14    52   1
    53    14    53   1
    54    15    54   1
    55    15    55   1
    56    17    56   1
    57    18    57   1
    58    20    58   1
    59    20    59   1
    60    22    60   1
    61    23    61   1
    62    23    62   1
    63    24    63   1
    64    24    64   1
    65    25    65   1
    66    25    66   1
    67    26    67   1
    68    26    68   1
    69    26    69   1
    70    27    70   1
    71    27    71   1
    72    28    72   1
    73    30    73   1
    74    30    74   1
    75    31    75   1
    76    31    76   1
    77    32    77   1
@<TRIPOS>SUBSTRUCTURE
     1  FA4      1

