@<TRIPOS>MOLECULE
2d1o_ligand_078
    77    77
SMALL
GAST_HUCK
****
This file was generated by PARSER (from files_GN.cpp)

@<TRIPOS>ATOM
      1 C1         29.3833    8.4709   16.7966 C.ar        1 FA4      -0.0755
      2 C2         30.1040    8.6488   15.6036 C.ar        1 FA4      -0.0668
      3 C3         31.0780    7.7085   15.1740 C.ar        1 FA4      -0.0377
      4 C4         31.3354    6.5644   16.0042 C.ar        1 FA4      -0.0050
      5 C5         30.5918    6.4086   17.2055 C.ar        1 FA4      -0.0635
      6 C6         29.6189    7.3448   17.5956 C.ar        1 FA4      -0.0754
      7 C7         31.6818    7.9061   13.8172 C.3         1 FA4      -0.0215
      8 C8         33.1948    8.2579   13.7707 C.3         1 FA4      -0.0443
      9 C9         33.5545    9.7780   13.8457 C.3         1 FA4      -0.0514
     10 C10        34.7914   10.1660   12.9772 C.3         1 FA4      -0.0529
     11 C11        36.1304    9.4185   13.2921 C.3         1 FA4      -0.0530
     12 C12        37.2091   10.2541   14.0508 C.3         1 FA4      -0.0529
     13 C13        38.6621    9.8570   13.6510 C.3         1 FA4      -0.0510
     14 C14        39.7894   10.8301   14.0962 C.3         1 FA4      -0.0361
     15 C15        39.5121   12.3600   13.9798 C.3         1 FA4       0.0374
     16 C16        38.9954   12.8491   12.7093 C.2         1 FA4       0.1782
     17 N17        39.6340   12.6267   11.5668 N.am        1 FA4      -0.2657
     18 C18        39.3467   13.2437   10.2918 C.3         1 FA4       0.1325
     19 O19        37.9737   13.5356   12.7321 O.2         1 FA4      -0.3969
     20 C20        38.9196   12.2012    9.2049 C.3         1 FA4      -0.0123
     21 C21        40.5257   14.0259    9.9371 C.2         1 FA4       0.2244
     22 N22        40.8852   15.0516   10.6907 N.am        1 FA4      -0.1623
     23 C23        37.4529   11.6921    9.3011 C.3         1 FA4      -0.0440
     24 C24        37.0205   10.8705    8.0513 C.3         1 FA4      -0.0124
     25 C25        35.8758    9.8601    8.3198 C.3         1 FA4      -0.0354
     26 N26        36.3542    8.6766    9.0436 N.4         1 FA4       0.2185
     27 C27        32.3544    5.5069   15.6936 C.3         1 FA4       0.0939
     28 N28        32.0532    4.7190   14.5770 N.pl3       1 FA4      -0.2620
     29 C29        31.1378    3.8276   14.4598 C.cat       1 FA4       0.2900
     30 N30        31.0744    3.1999   13.3494 N.pl3       1 FA4      -0.2847
     31 N31        30.3026    3.5125   15.3752 N.pl3       1 FA4      -0.2847
     32 O32        41.9606   15.7529   10.4641 O.3         1 FA4      -0.2717
     33 O33        41.1811   13.7630    8.9282 O.2         1 FA4      -0.3944
     34 H1         28.6768    9.1538   17.0823 H           1 FA4       0.0541
     35 H2         29.8877    9.4700   15.0357 H           1 FA4       0.0537
     36 H3         30.7389    5.5959   17.8072 H           1 FA4       0.0538
     37 H4         29.0850    7.1962   18.4543 H           1 FA4       0.0541
     38 H5         31.1414    8.6778   13.2615 H           1 FA4       0.0411
     39 H6         31.5142    6.9991   13.2420 H           1 FA4       0.0411
     40 H7         33.5783    7.8441   12.8300 H           1 FA4       0.0286
     41 H8         33.7219    7.7409   14.5803 H           1 FA4       0.0286
     42 H9         33.7398   10.0717   14.8852 H           1 FA4       0.0267
     43 H10        32.7144   10.3799   13.4833 H           1 FA4       0.0267
     44 H11        34.9449   11.2428   13.0476 H           1 FA4       0.0265
     45 H12        34.5284    9.9614   11.9326 H           1 FA4       0.0265
     46 H13        36.5552    9.1102   12.3260 H           1 FA4       0.0265
     47 H14        35.9438    8.4925   13.8522 H           1 FA4       0.0265
     48 H15        37.0743   10.1184   15.1304 H           1 FA4       0.0265
     49 H16        37.0701   11.3085   13.8204 H           1 FA4       0.0265
     50 H17        38.7240    9.7707   12.5629 H           1 FA4       0.0267
     51 H18        38.8832    8.8688   14.0652 H           1 FA4       0.0267
     52 H19        40.6749   10.6027   13.4915 H           1 FA4       0.0290
     53 H20        40.0549   10.6078   15.1357 H           1 FA4       0.0290
     54 H21        40.4493   12.8902   14.1811 H           1 FA4       0.0502
     55 H22        38.8255   12.6321   14.7890 H           1 FA4       0.0502
     56 H23        40.4289   12.0632   11.6095 H           1 FA4       0.1882
     57 H24        38.5149   13.9553   10.3679 H           1 FA4       0.0799
     58 H25        39.5924   11.3400    9.2514 H           1 FA4       0.0312
     59 H26        39.0558   12.6776    8.2274 H           1 FA4       0.0312
     60 H27        40.3343   15.2794   11.4577 H           1 FA4       0.2217
     61 H28        36.7770   12.5452    9.4182 H           1 FA4       0.0269
     62 H29        37.3644   11.0639   10.1882 H           1 FA4       0.0269
     63 H30        37.8833   10.3239    7.6596 H           1 FA4       0.0317
     64 H31        36.6951   11.5689    7.2738 H           1 FA4       0.0317
     65 H32        35.4616    9.5218    7.3678 H           1 FA4       0.0813
     66 H33        35.0710   10.3282    8.8892 H           1 FA4       0.0813
     67 H34        35.5902    8.0074    9.1362 H           1 FA4       0.1994
     68 H35        36.6811    8.9462    9.9698 H           1 FA4       0.1994
     69 H36        37.1236    8.2445    8.5288 H           1 FA4       0.1994
     70 H37        32.5203    4.8306   16.5405 H           1 FA4       0.0839
     71 H38        33.3093    6.0028   15.5151 H           1 FA4       0.0839
     72 H39        32.6034    4.8304   13.8278 H           1 FA4       0.2664
     73 H40        30.4345    2.5238   13.2221 H           1 FA4       0.2615
     74 H41        31.6841    3.3996   12.6678 H           1 FA4       0.2615
     75 H42        30.3251    3.9454   16.2042 H           1 FA4       0.2615
     76 H43        29.6714    2.8387   15.2243 H           1 FA4       0.2615
     77 H44        41.6699   16.6887   10.4473 H           1 FA4       0.2490
@<TRIPOS>BOND
     1     1     2  ar
     2     1     6  ar
     3     2     3  ar
     4     3     4  ar
     5     3     7   1
     6     4     5  ar
     7     4    27   1
     8     5     6  ar
     9     7     8   1
    10     8     9   1
    11     9    10   1
    12    10    11   1
    13    11    12   1
    14    12    13   1
    15    13    14   1
    16    14    15   1
    17    15    16   1
    18    16    17  am
    19    16    19   2
    20    17    18   1
    21    18    20   1
    22    18    21   1
    23    20    23   1
    24    21    22  am
    25    21    33   2
    26    22    32   1
    27    23    24   1
    28    24    25   1
    29    25    26   1
    30    27    28   1
    31    28    29  ar
    32    29    30  ar
    33    29    31  ar
    34     1    34   1
    35     2    35   1
    36     5    36   1
    37     6    37   1
    38     7    38   1
    39     7    39   1
    40     8    40   1
    41     8    41   1
    42     9    42   1
    43     9    43   1
    44    10    44   1
    45    10    45   1
    46    11    46   1
    47    11    47   1
    48    12    48   1
    49    12    49   1
    50    13    50   1
    51    13    51   1
    52    14    52   1
    53    14    53   1
    54    15    54   1
    55    15    55   1
    56    17    56   1
    57    18    57   1
    58    20    58   1
    59    20    59   1
    60    22    60   1
    61    23    61   1
    62    23    62   1
    63    24    63   1
    64    24    64   1
    65    25    65   1
    66    25    66   1
    67    26    67   1
    68    26    68   1
    69    26    69   1
    70    27    70   1
    71    27    71   1
    72    28    72   1
    73    30    73   1
    74    30    74   1
    75    31    75   1
    76    31    76   1
    77    32    77   1
@<TRIPOS>SUBSTRUCTURE
     1  FA4      1

