@<TRIPOS>MOLECULE
2d1o_ligand_090
    77    77
SMALL
GAST_HUCK
****
This file was generated by PARSER (from files_GN.cpp)

@<TRIPOS>ATOM
      1 C1         30.9026    9.0261   14.5608 C.ar        1 FA4      -0.0755
      2 C2         30.5857    9.1873   15.9181 C.ar        1 FA4      -0.0668
      3 C3         30.0609    8.1261   16.7012 C.ar        1 FA4      -0.0377
      4 C4         29.8100    6.8655   16.0608 C.ar        1 FA4      -0.0050
      5 C5         30.1195    6.7346   14.6780 C.ar        1 FA4      -0.0635
      6 C6         30.6615    7.7966   13.9379 C.ar        1 FA4      -0.0754
      7 C7         29.9574    8.3901   18.1741 C.3         1 FA4      -0.0215
      8 C8         28.9302    9.4814   18.6114 C.3         1 FA4      -0.0443
      9 C9         29.4192   10.3019   19.8454 C.3         1 FA4      -0.0514
     10 C10        30.4173   11.4515   19.4894 C.3         1 FA4      -0.0529
     11 C11        31.6956   11.5501   20.3852 C.3         1 FA4      -0.0530
     12 C12        32.9518   10.8523   19.7828 C.3         1 FA4      -0.0529
     13 C13        33.6473   11.6415   18.6259 C.3         1 FA4      -0.0510
     14 C14        34.1314   10.7411   17.4523 C.3         1 FA4      -0.0361
     15 C15        35.0804   11.4719   16.4626 C.3         1 FA4       0.0374
     16 C16        35.7300   10.5607   15.5369 C.2         1 FA4       0.1782
     17 N17        35.1091   10.1246   14.4456 N.am        1 FA4      -0.2657
     18 C18        35.6421    9.1974   13.4793 C.3         1 FA4       0.1325
     19 O19        36.8483   10.1427   15.8334 O.2         1 FA4      -0.3969
     20 C20        36.8277    9.7697   12.6346 C.3         1 FA4      -0.0123
     21 C21        34.5817    8.6483   12.6416 C.2         1 FA4       0.2244
     22 N22        34.4324    7.3419   12.5128 N.am        1 FA4      -0.1623
     23 C23        36.5537   10.9806   11.6946 C.3         1 FA4      -0.0440
     24 C24        36.1958   12.2975   12.4334 C.3         1 FA4      -0.0124
     25 C25        36.3892   13.5710   11.5764 C.3         1 FA4      -0.0354
     26 N26        35.5361   13.5789   10.3831 N.4         1 FA4       0.2185
     27 C27        29.2905    5.6360   16.7334 C.3         1 FA4       0.0939
     28 N28        28.0941    5.2228   16.1370 N.pl3       1 FA4      -0.2620
     29 C29        27.7295    4.0434   15.7964 C.cat       1 FA4       0.2900
     30 N30        26.5619    3.9192   15.2959 N.pl3       1 FA4      -0.2847
     31 N31        28.4275    2.9786   15.9325 N.pl3       1 FA4      -0.2847
     32 O32        33.5139    6.8097   11.7555 O.3         1 FA4      -0.2717
     33 O33        33.8164    9.3962   12.0353 O.2         1 FA4      -0.3944
     34 H1         31.3249    9.7928   14.0285 H           1 FA4       0.0541
     35 H2         30.7911   10.0952   16.3407 H           1 FA4       0.0537
     36 H3         29.9620    5.8477   14.1937 H           1 FA4       0.0538
     37 H4         30.8952    7.6720   12.9504 H           1 FA4       0.0541
     38 H5         30.9586    8.6822   18.4897 H           1 FA4       0.0411
     39 H6         29.7452    7.5033   18.7610 H           1 FA4       0.0411
     40 H7         27.9911    8.9860   18.8788 H           1 FA4       0.0286
     41 H8         28.6978   10.1723   17.7975 H           1 FA4       0.0286
     42 H9         29.8571    9.6112   20.5736 H           1 FA4       0.0267
     43 H10        28.5438   10.7449   20.3328 H           1 FA4       0.0267
     44 H11        29.8779   12.3998   19.5660 H           1 FA4       0.0265
     45 H12        30.7299   11.3750   18.4473 H           1 FA4       0.0265
     46 H13        31.4912   11.1166   21.3697 H           1 FA4       0.0265
     47 H14        31.9398   12.6017   20.5539 H           1 FA4       0.0265
     48 H15        32.6686    9.8542   19.4531 H           1 FA4       0.0265
     49 H16        33.6819   10.7152   20.5874 H           1 FA4       0.0265
     50 H17        34.5069   12.1709   19.0481 H           1 FA4       0.0267
     51 H18        32.9762   12.4041   18.2163 H           1 FA4       0.0267
     52 H19        33.2589   10.3765   16.9052 H           1 FA4       0.0290
     53 H20        34.6472    9.8704   17.8703 H           1 FA4       0.0290
     54 H21        35.8494   12.0059   17.0315 H           1 FA4       0.0502
     55 H22        34.5175   12.2277   15.9048 H           1 FA4       0.0502
     56 H23        34.2067   10.4577   14.2938 H           1 FA4       0.1882
     57 H24        36.0596    8.3628   14.0553 H           1 FA4       0.0799
     58 H25        37.2194    8.9566   12.0143 H           1 FA4       0.0312
     59 H26        37.6403   10.0466   13.3121 H           1 FA4       0.0312
     60 H27        35.0358    6.7537   12.9998 H           1 FA4       0.2217
     61 H28        35.7592   10.7280   10.9913 H           1 FA4       0.0269
     62 H29        37.4610   11.1440   11.1045 H           1 FA4       0.0269
     63 H30        36.8286   12.3941   13.3197 H           1 FA4       0.0317
     64 H31        35.1541   12.2553   12.7636 H           1 FA4       0.0317
     65 H32        37.4325   13.6525   11.2658 H           1 FA4       0.0813
     66 H33        36.1448   14.4465   12.1802 H           1 FA4       0.0813
     67 H34        35.6909   14.4474    9.8670 H           1 FA4       0.1994
     68 H35        34.5536   13.5174   10.6569 H           1 FA4       0.1994
     69 H36        35.7737   12.7843    9.7855 H           1 FA4       0.1994
     70 H37        29.0524    5.7801   17.7851 H           1 FA4       0.0839
     71 H38        30.0731    4.8741   16.6922 H           1 FA4       0.0839
     72 H39        27.4643    5.9010   15.9987 H           1 FA4       0.2664
     73 H40        26.2463    3.0753   15.0410 H           1 FA4       0.2615
     74 H41        26.0150    4.6718   15.1894 H           1 FA4       0.2615
     75 H42        29.2861    3.0161   16.3011 H           1 FA4       0.2615
     76 H43        28.0749    2.1522   15.6658 H           1 FA4       0.2615
     77 H44        33.7038    5.8531   11.7622 H           1 FA4       0.2490
@<TRIPOS>BOND
     1     1     2  ar
     2     1     6  ar
     3     2     3  ar
     4     3     4  ar
     5     3     7   1
     6     4     5  ar
     7     4    27   1
     8     5     6  ar
     9     7     8   1
    10     8     9   1
    11     9    10   1
    12    10    11   1
    13    11    12   1
    14    12    13   1
    15    13    14   1
    16    14    15   1
    17    15    16   1
    18    16    17  am
    19    16    19   2
    20    17    18   1
    21    18    20   1
    22    18    21   1
    23    20    23   1
    24    21    22  am
    25    21    33   2
    26    22    32   1
    27    23    24   1
    28    24    25   1
    29    25    26   1
    30    27    28   1
    31    28    29  ar
    32    29    30  ar
    33    29    31  ar
    34     1    34   1
    35     2    35   1
    36     5    36   1
    37     6    37   1
    38     7    38   1
    39     7    39   1
    40     8    40   1
    41     8    41   1
    42     9    42   1
    43     9    43   1
    44    10    44   1
    45    10    45   1
    46    11    46   1
    47    11    47   1
    48    12    48   1
    49    12    49   1
    50    13    50   1
    51    13    51   1
    52    14    52   1
    53    14    53   1
    54    15    54   1
    55    15    55   1
    56    17    56   1
    57    18    57   1
    58    20    58   1
    59    20    59   1
    60    22    60   1
    61    23    61   1
    62    23    62   1
    63    24    63   1
    64    24    64   1
    65    25    65   1
    66    25    66   1
    67    26    67   1
    68    26    68   1
    69    26    69   1
    70    27    70   1
    71    27    71   1
    72    28    72   1
    73    30    73   1
    74    30    74   1
    75    31    75   1
    76    31    76   1
    77    32    77   1
@<TRIPOS>SUBSTRUCTURE
     1  FA4      1

