@<TRIPOS>MOLECULE
2d1o_ligand_016
    77    77
SMALL
GAST_HUCK
****
This file was generated by PARSER (from files_GN.cpp)

@<TRIPOS>ATOM
      1 C1         25.8379    6.5453   24.2435 C.ar        1 FA4      -0.0755
      2 C2         26.7005    6.3930   23.1481 C.ar        1 FA4      -0.0668
      3 C3         27.8305    5.5357   23.2111 C.ar        1 FA4      -0.0377
      4 C4         28.0550    4.7837   24.4111 C.ar        1 FA4      -0.0050
      5 C5         27.1803    4.9728   25.5104 C.ar        1 FA4      -0.0635
      6 C6         26.0804    5.8390   25.4288 C.ar        1 FA4      -0.0754
      7 C7         28.7142    5.4707   21.9994 C.3         1 FA4      -0.0215
      8 C8         29.9629    6.3963   22.0685 C.3         1 FA4      -0.0443
      9 C9         29.6904    7.9318   22.1021 C.3         1 FA4      -0.0514
     10 C10        28.8957    8.5442   20.9069 C.3         1 FA4      -0.0529
     11 C11        29.2290    7.9150   19.5173 C.3         1 FA4      -0.0530
     12 C12        28.9243    8.8696   18.3295 C.3         1 FA4      -0.0529
     13 C13        29.2865    8.3132   16.9206 C.3         1 FA4      -0.0510
     14 C14        30.5463    7.4006   16.8022 C.3         1 FA4      -0.0361
     15 C15        31.8555    7.9418   17.4700 C.3         1 FA4       0.0374
     16 C16        32.9945    7.9862   16.5737 C.2         1 FA4       0.1782
     17 N17        32.9675    8.8702   15.5804 N.am        1 FA4      -0.2657
     18 C18        33.9536    9.0913   14.5637 C.3         1 FA4       0.1325
     19 O19        33.9205    7.1917   16.7198 O.2         1 FA4      -0.3969
     20 C20        34.2063   10.6246   14.3592 C.3         1 FA4      -0.0123
     21 C21        33.4977    8.4359   13.3405 C.2         1 FA4       0.2244
     22 N22        34.1370    7.3901   12.8447 N.am        1 FA4      -0.1623
     23 C23        32.9287   11.5219   14.2565 C.3         1 FA4      -0.0440
     24 C24        33.1281   12.7843   13.3766 C.3         1 FA4      -0.0124
     25 C25        31.8224   13.6193   13.2505 C.3         1 FA4      -0.0354
     26 N26        31.7799   14.3621   11.9861 N.4         1 FA4       0.2185
     27 C27        29.1625    3.7869   24.5725 C.3         1 FA4       0.0939
     28 N28        29.0248    2.6787   23.7305 N.pl3       1 FA4      -0.2620
     29 C29        28.2463    1.6668   23.8686 C.cat       1 FA4       0.2900
     30 N30        28.2634    0.7773   22.9550 N.pl3       1 FA4      -0.2847
     31 N31        27.4524    1.4884   24.8565 N.pl3       1 FA4      -0.2847
     32 O32        33.7025    6.7958   11.7703 O.3         1 FA4      -0.2717
     33 O33        32.4789    8.8414   12.7885 O.2         1 FA4      -0.3944
     34 H1         25.0302    7.1782   24.1764 H           1 FA4       0.0541
     35 H2         26.5031    6.9334   22.2984 H           1 FA4       0.0537
     36 H3         27.3186    4.4620   26.3849 H           1 FA4       0.0538
     37 H4         25.4581    5.9633   26.2330 H           1 FA4       0.0541
     38 H5         28.1582    5.7245   21.0869 H           1 FA4       0.0411
     39 H6         29.0531    4.4435   21.8571 H           1 FA4       0.0411
     40 H7         30.5930    6.1768   21.2042 H           1 FA4       0.0286
     41 H8         30.5599    6.1544   22.9529 H           1 FA4       0.0286
     42 H9         30.6660    8.4344   22.1476 H           1 FA4       0.0267
     43 H10        29.1630    8.1788   23.0331 H           1 FA4       0.0267
     44 H11        29.1245    9.6155   20.8885 H           1 FA4       0.0265
     45 H12        27.8210    8.4386   21.0982 H           1 FA4       0.0265
     46 H13        28.6535    6.9787   19.4186 H           1 FA4       0.0265
     47 H14        30.2998    7.6750   19.4910 H           1 FA4       0.0265
     48 H15        29.4725    9.8069   18.4792 H           1 FA4       0.0265
     49 H16        27.8542    9.1071   18.3222 H           1 FA4       0.0265
     50 H17        29.4251    9.1642   16.2406 H           1 FA4       0.0267
     51 H18        28.4323    7.7399   16.5413 H           1 FA4       0.0267
     52 H19        30.7092    7.2147   15.7299 H           1 FA4       0.0290
     53 H20        30.3098    6.4263   17.2497 H           1 FA4       0.0290
     54 H21        32.1040    7.3092   18.3292 H           1 FA4       0.0502
     55 H22        31.7032    8.9555   17.8602 H           1 FA4       0.0502
     56 H23        32.1479    9.3896   15.5109 H           1 FA4       0.1882
     57 H24        34.9102    8.6527   14.8723 H           1 FA4       0.0799
     58 H25        34.8233   10.7409   13.4609 H           1 FA4       0.0312
     59 H26        34.8073   10.9910   15.2000 H           1 FA4       0.0312
     60 H27        34.9111    7.0348   13.3183 H           1 FA4       0.2217
     61 H28        32.6321   11.8287   15.2670 H           1 FA4       0.0269
     62 H29        32.1020   10.9430   13.8273 H           1 FA4       0.0269
     63 H30        33.4492   12.4694   12.3793 H           1 FA4       0.0317
     64 H31        33.9101   13.4149   13.8082 H           1 FA4       0.0317
     65 H32        31.7530   14.3280   14.0824 H           1 FA4       0.0813
     66 H33        30.9376   12.9693   13.2717 H           1 FA4       0.0813
     67 H34        30.9667   14.9868   11.9824 H           1 FA4       0.1994
     68 H35        31.6897   13.6868   11.2209 H           1 FA4       0.1994
     69 H36        32.6358   14.9133   11.8730 H           1 FA4       0.1994
     70 H37        29.2525    3.4286   25.6043 H           1 FA4       0.0839
     71 H38        30.1122    4.2730   24.3487 H           1 FA4       0.0839
     72 H39        29.5829    2.6681   22.9732 H           1 FA4       0.2664
     73 H40        27.7202    0.0216   23.0252 H           1 FA4       0.2615
     74 H41        28.8262    0.8788   22.2149 H           1 FA4       0.2615
     75 H42        27.4132    2.1118   25.5522 H           1 FA4       0.2615
     76 H43        26.9061    0.7301   24.8806 H           1 FA4       0.2615
     77 H44        34.0392    5.8843   11.8281 H           1 FA4       0.2490
@<TRIPOS>BOND
     1     1     2  ar
     2     1     6  ar
     3     2     3  ar
     4     3     4  ar
     5     3     7   1
     6     4     5  ar
     7     4    27   1
     8     5     6  ar
     9     7     8   1
    10     8     9   1
    11     9    10   1
    12    10    11   1
    13    11    12   1
    14    12    13   1
    15    13    14   1
    16    14    15   1
    17    15    16   1
    18    16    17  am
    19    16    19   2
    20    17    18   1
    21    18    20   1
    22    18    21   1
    23    20    23   1
    24    21    22  am
    25    21    33   2
    26    22    32   1
    27    23    24   1
    28    24    25   1
    29    25    26   1
    30    27    28   1
    31    28    29  ar
    32    29    30  ar
    33    29    31  ar
    34     1    34   1
    35     2    35   1
    36     5    36   1
    37     6    37   1
    38     7    38   1
    39     7    39   1
    40     8    40   1
    41     8    41   1
    42     9    42   1
    43     9    43   1
    44    10    44   1
    45    10    45   1
    46    11    46   1
    47    11    47   1
    48    12    48   1
    49    12    49   1
    50    13    50   1
    51    13    51   1
    52    14    52   1
    53    14    53   1
    54    15    54   1
    55    15    55   1
    56    17    56   1
    57    18    57   1
    58    20    58   1
    59    20    59   1
    60    22    60   1
    61    23    61   1
    62    23    62   1
    63    24    63   1
    64    24    64   1
    65    25    65   1
    66    25    66   1
    67    26    67   1
    68    26    68   1
    69    26    69   1
    70    27    70   1
    71    27    71   1
    72    28    72   1
    73    30    73   1
    74    30    74   1
    75    31    75   1
    76    31    76   1
    77    32    77   1
@<TRIPOS>SUBSTRUCTURE
     1  FA4      1

