@<TRIPOS>MOLECULE
2d1o_ligand_012
    77    77
SMALL
GAST_HUCK
****
This file was generated by PARSER (from files_GN.cpp)

@<TRIPOS>ATOM
      1 C1         26.4004    4.5172   23.0162 C.ar        1 FA4      -0.0755
      2 C2         27.4849    5.1440   22.3792 C.ar        1 FA4      -0.0668
      3 C3         28.6345    5.5449   23.1072 C.ar        1 FA4      -0.0377
      4 C4         28.6660    5.3267   24.5197 C.ar        1 FA4      -0.0050
      5 C5         27.5677    4.6796   25.1385 C.ar        1 FA4      -0.0635
      6 C6         26.4497    4.2690   24.3958 C.ar        1 FA4      -0.0754
      7 C7         29.7436    6.2080   22.3483 C.3         1 FA4      -0.0215
      8 C8         29.6423    7.7700   22.3249 C.3         1 FA4      -0.0443
      9 C9         29.7321    8.4058   20.9079 C.3         1 FA4      -0.0514
     10 C10        28.3784    8.4431   20.1390 C.3         1 FA4      -0.0529
     11 C11        28.4750    9.0547   18.7127 C.3         1 FA4      -0.0530
     12 C12        29.2156    8.1763   17.6444 C.3         1 FA4      -0.0529
     13 C13        30.5383    8.7763   17.0774 C.3         1 FA4      -0.0510
     14 C14        31.6960    8.7979   18.1161 C.3         1 FA4      -0.0361
     15 C15        32.9904    9.4928   17.5916 C.3         1 FA4       0.0374
     16 C16        33.7107    8.7608   16.5489 C.2         1 FA4       0.1782
     17 N17        33.9269    9.3531   15.3734 N.am        1 FA4      -0.2657
     18 C18        34.8261    8.9267   14.3338 C.3         1 FA4       0.1325
     19 O19        34.1687    7.6547   16.8214 O.2         1 FA4      -0.3969
     20 C20        35.7416   10.1245   13.9300 C.3         1 FA4      -0.0123
     21 C21        34.0540    8.4243   13.2069 C.2         1 FA4       0.2244
     22 N22        34.2772    7.2138   12.7275 N.am        1 FA4      -0.1623
     23 C23        36.7733   10.5305   15.0230 C.3         1 FA4      -0.0440
     24 C24        38.1050    9.7335   14.9467 C.3         1 FA4      -0.0124
     25 C25        39.0609   10.0653   16.1158 C.3         1 FA4      -0.0354
     26 N26        40.4070    9.5272   15.8694 N.4         1 FA4       0.2185
     27 C27        29.8094    5.7406   25.3852 C.3         1 FA4       0.0939
     28 N28        30.8057    4.7569   25.3805 N.pl3       1 FA4      -0.2620
     29 C29        31.0494    3.8675   26.2737 C.cat       1 FA4       0.2900
     30 N30        32.0222    3.0660   26.0726 N.pl3       1 FA4      -0.2847
     31 N31        30.3868    3.7158   27.3571 N.pl3       1 FA4      -0.2847
     32 O32        33.6135    6.7455   11.7141 O.3         1 FA4      -0.2717
     33 O33        33.1927    9.1295   12.6947 O.2         1 FA4      -0.3944
     34 H1         25.5804    4.2332   22.4694 H           1 FA4       0.0541
     35 H2         27.4183    5.3111   21.3721 H           1 FA4       0.0537
     36 H3         27.5718    4.4954   26.1444 H           1 FA4       0.0538
     37 H4         25.6662    3.7984   24.8574 H           1 FA4       0.0541
     38 H5         29.7707    5.8096   21.3265 H           1 FA4       0.0411
     39 H6         30.7023    5.9198   22.7778 H           1 FA4       0.0411
     40 H7         30.4757    8.1732   22.9147 H           1 FA4       0.0286
     41 H8         28.7219    8.1126   22.8078 H           1 FA4       0.0286
     42 H9         30.4695    7.8597   20.3181 H           1 FA4       0.0267
     43 H10        30.1042    9.4359   20.9893 H           1 FA4       0.0267
     44 H11        27.6798    9.0620   20.7195 H           1 FA4       0.0265
     45 H12        27.9608    7.4347   20.0798 H           1 FA4       0.0265
     46 H13        28.9306   10.0470   18.7731 H           1 FA4       0.0265
     47 H14        27.4504    9.2180   18.3543 H           1 FA4       0.0265
     48 H15        28.5313    8.0280   16.7970 H           1 FA4       0.0265
     49 H16        29.4252    7.1800   18.0504 H           1 FA4       0.0265
     50 H17        30.3372    9.7903   16.6971 H           1 FA4       0.0267
     51 H18        30.8465    8.1601   16.2209 H           1 FA4       0.0267
     52 H19        31.9302    7.7708   18.4209 H           1 FA4       0.0290
     53 H20        31.3521    9.3477   19.0088 H           1 FA4       0.0290
     54 H21        33.6634    9.6127   18.4498 H           1 FA4       0.0502
     55 H22        32.7340   10.5091   17.2577 H           1 FA4       0.0502
     56 H23        33.4845   10.2065   15.2369 H           1 FA4       0.1882
     57 H24        35.4887    8.1322   14.7023 H           1 FA4       0.0799
     58 H25        35.1091   10.9916   13.7171 H           1 FA4       0.0312
     59 H26        36.2740    9.8931   12.9995 H           1 FA4       0.0312
     60 H27        34.9578    6.6621   13.1396 H           1 FA4       0.2217
     61 H28        36.3365   10.4060   16.0181 H           1 FA4       0.0269
     62 H29        37.0075   11.5932   14.9062 H           1 FA4       0.0269
     63 H30        38.6077    9.9672   14.0038 H           1 FA4       0.0317
     64 H31        37.8953    8.6611   14.9662 H           1 FA4       0.0317
     65 H32        38.6808    9.6326   17.0453 H           1 FA4       0.0813
     66 H33        39.1511   11.1487   16.2389 H           1 FA4       0.0813
     67 H34        40.9916    9.6496   16.7028 H           1 FA4       0.1994
     68 H35        40.8285   10.0327   15.0857 H           1 FA4       0.1994
     69 H36        40.3530    8.5327   15.6281 H           1 FA4       0.1994
     70 H37        29.4606    5.9758   26.3962 H           1 FA4       0.0839
     71 H38        30.2463    6.6724   25.0195 H           1 FA4       0.0839
     72 H39        31.3581    4.7388   24.6245 H           1 FA4       0.2664
     73 H40        32.2205    2.4058   26.7046 H           1 FA4       0.2615
     74 H41        32.5451    3.1329   25.2991 H           1 FA4       0.2615
     75 H42        29.6623    4.2673   27.5511 H           1 FA4       0.2615
     76 H43        30.6276    3.0430   27.9559 H           1 FA4       0.2615
     77 H44        33.9066    5.8205   11.6276 H           1 FA4       0.2490
@<TRIPOS>BOND
     1     1     2  ar
     2     1     6  ar
     3     2     3  ar
     4     3     4  ar
     5     3     7   1
     6     4     5  ar
     7     4    27   1
     8     5     6  ar
     9     7     8   1
    10     8     9   1
    11     9    10   1
    12    10    11   1
    13    11    12   1
    14    12    13   1
    15    13    14   1
    16    14    15   1
    17    15    16   1
    18    16    17  am
    19    16    19   2
    20    17    18   1
    21    18    20   1
    22    18    21   1
    23    20    23   1
    24    21    22  am
    25    21    33   2
    26    22    32   1
    27    23    24   1
    28    24    25   1
    29    25    26   1
    30    27    28   1
    31    28    29  ar
    32    29    30  ar
    33    29    31  ar
    34     1    34   1
    35     2    35   1
    36     5    36   1
    37     6    37   1
    38     7    38   1
    39     7    39   1
    40     8    40   1
    41     8    41   1
    42     9    42   1
    43     9    43   1
    44    10    44   1
    45    10    45   1
    46    11    46   1
    47    11    47   1
    48    12    48   1
    49    12    49   1
    50    13    50   1
    51    13    51   1
    52    14    52   1
    53    14    53   1
    54    15    54   1
    55    15    55   1
    56    17    56   1
    57    18    57   1
    58    20    58   1
    59    20    59   1
    60    22    60   1
    61    23    61   1
    62    23    62   1
    63    24    63   1
    64    24    64   1
    65    25    65   1
    66    25    66   1
    67    26    67   1
    68    26    68   1
    69    26    69   1
    70    27    70   1
    71    27    71   1
    72    28    72   1
    73    30    73   1
    74    30    74   1
    75    31    75   1
    76    31    76   1
    77    32    77   1
@<TRIPOS>SUBSTRUCTURE
     1  FA4      1

