@<TRIPOS>MOLECULE
2d1o_ligand_094
    77    77
SMALL
GAST_HUCK
****
This file was generated by PARSER (from files_GN.cpp)

@<TRIPOS>ATOM
      1 C1         27.4786   13.2714   27.1843 C.ar        1 FA4      -0.0755
      2 C2         28.5486   12.3811   26.9974 C.ar        1 FA4      -0.0668
      3 C3         28.3536   10.9766   27.0345 C.ar        1 FA4      -0.0377
      4 C4         27.0376   10.4656   27.2724 C.ar        1 FA4      -0.0050
      5 C5         25.9735   11.3861   27.4562 C.ar        1 FA4      -0.0635
      6 C6         26.1886   12.7735   27.4083 C.ar        1 FA4      -0.0754
      7 C7         29.5587   10.1200   26.7943 C.3         1 FA4      -0.0215
      8 C8         30.1305   10.2197   25.3513 C.3         1 FA4      -0.0443
      9 C9         29.1738    9.6687   24.2564 C.3         1 FA4      -0.0514
     10 C10        29.8611    9.6150   22.8678 C.3         1 FA4      -0.0529
     11 C11        29.0373    8.8549   21.7910 C.3         1 FA4      -0.0530
     12 C12        29.9542    8.3635   20.6378 C.3         1 FA4      -0.0529
     13 C13        29.1989    7.7442   19.4285 C.3         1 FA4      -0.0510
     14 C14        30.1558    7.2697   18.2919 C.3         1 FA4      -0.0361
     15 C15        30.7722    8.4273   17.4485 C.3         1 FA4       0.0374
     16 C16        31.9837    8.1181   16.6990 C.2         1 FA4       0.1782
     17 N17        32.3156    8.9295   15.7046 N.am        1 FA4      -0.2657
     18 C18        33.4868    8.8502   14.8754 C.3         1 FA4       0.1325
     19 O19        32.7134    7.1947   17.0494 O.2         1 FA4      -0.3969
     20 C20        34.1683   10.2488   14.7270 C.3         1 FA4      -0.0123
     21 C21        33.1569    8.2712   13.5760 C.2         1 FA4       0.2244
     22 N22        33.8828    7.2956   13.0688 N.am        1 FA4      -0.1623
     23 C23        33.2667   11.4284   14.2473 C.3         1 FA4      -0.0440
     24 C24        33.9518   12.3408   13.1872 C.3         1 FA4      -0.0124
     25 C25        33.3531   13.7683   13.0818 C.3         1 FA4      -0.0354
     26 N26        31.9230   13.7905   12.7362 N.4         1 FA4       0.2185
     27 C27        26.7184    9.0060   27.3278 C.3         1 FA4       0.0939
     28 N28        27.2473    8.3560   28.4476 N.pl3       1 FA4      -0.2620
     29 C29        26.8704    8.4454   29.6704 C.cat       1 FA4       0.2900
     30 N30        27.5002    7.7438   30.5291 N.pl3       1 FA4      -0.2847
     31 N31        25.9079    9.1784   30.0865 N.pl3       1 FA4      -0.2847
     32 O32        33.6496    6.8329   11.8697 O.3         1 FA4      -0.2717
     33 O33        32.2256    8.7232   12.9260 O.2         1 FA4      -0.3944
     34 H1         27.6442   14.2803   27.1467 H           1 FA4       0.0541
     35 H2         29.4820   12.7735   26.8427 H           1 FA4       0.0537
     36 H3         25.0206   11.0557   27.6239 H           1 FA4       0.0538
     37 H4         25.4083   13.4201   27.5470 H           1 FA4       0.0541
     38 H5         29.3650    9.0672   26.9974 H           1 FA4       0.0411
     39 H6         30.3385   10.4191   27.5020 H           1 FA4       0.0411
     40 H7         31.0592    9.6438   25.3284 H           1 FA4       0.0286
     41 H8         30.3858   11.2599   25.1272 H           1 FA4       0.0286
     42 H9         28.2856   10.3033   24.1937 H           1 FA4       0.0267
     43 H10        28.8605    8.6592   24.5307 H           1 FA4       0.0267
     44 H11        30.8306    9.1195   22.9857 H           1 FA4       0.0265
     45 H12        30.0451   10.6356   22.5143 H           1 FA4       0.0265
     46 H13        28.2665    9.5199   21.3892 H           1 FA4       0.0265
     47 H14        28.5455    7.9936   22.2469 H           1 FA4       0.0265
     48 H15        30.6203    7.6025   21.0533 H           1 FA4       0.0265
     49 H16        30.5624    9.2032   20.2948 H           1 FA4       0.0265
     50 H17        28.4811    8.4729   19.0336 H           1 FA4       0.0267
     51 H18        28.6325    6.8782   19.7842 H           1 FA4       0.0267
     52 H19        29.5881    6.6223   17.6185 H           1 FA4       0.0290
     53 H20        30.9521    6.6648   18.7363 H           1 FA4       0.0290
     54 H21        31.0090    9.2701   18.1085 H           1 FA4       0.0502
     55 H22        30.0011    8.7592   16.7403 H           1 FA4       0.0502
     56 H23        31.6709    9.6232   15.4883 H           1 FA4       0.1882
     57 H24        34.2305    8.2160   15.3683 H           1 FA4       0.0799
     58 H25        35.0233   10.1368   14.0522 H           1 FA4       0.0312
     59 H26        34.5845   10.5334   15.7005 H           1 FA4       0.0312
     60 H27        34.6205    6.9339   13.5866 H           1 FA4       0.2217
     61 H28        32.9941   12.0391   15.1147 H           1 FA4       0.0269
     62 H29        32.3410   11.0511   13.8094 H           1 FA4       0.0269
     63 H30        33.8798   11.8535   12.2064 H           1 FA4       0.0317
     64 H31        35.0147   12.4388   13.4362 H           1 FA4       0.0317
     65 H32        33.8965   14.3175   12.3061 H           1 FA4       0.0813
     66 H33        33.4932   14.2952   14.0308 H           1 FA4       0.0813
     67 H34        31.6172   14.7646   12.6656 H           1 FA4       0.1994
     68 H35        31.3876   13.3235   13.4709 H           1 FA4       0.1994
     69 H36        31.7604   13.3164   11.8437 H           1 FA4       0.1994
     70 H37        27.1309    8.5412   26.4307 H           1 FA4       0.0839
     71 H38        25.6409    8.8183   27.2942 H           1 FA4       0.0839
     72 H39        27.9542    7.7661   28.2799 H           1 FA4       0.2664
     73 H40        27.2607    7.7763   31.4328 H           1 FA4       0.2615
     74 H41        28.2106    7.1965   30.2580 H           1 FA4       0.2615
     75 H42        25.4235    9.7079   29.4874 H           1 FA4       0.2615
     76 H43        25.6921    9.1917   30.9984 H           1 FA4       0.2615
     77 H44        33.9940    5.9186   11.8749 H           1 FA4       0.2490
@<TRIPOS>BOND
     1     1     2  ar
     2     1     6  ar
     3     2     3  ar
     4     3     4  ar
     5     3     7   1
     6     4     5  ar
     7     4    27   1
     8     5     6  ar
     9     7     8   1
    10     8     9   1
    11     9    10   1
    12    10    11   1
    13    11    12   1
    14    12    13   1
    15    13    14   1
    16    14    15   1
    17    15    16   1
    18    16    17  am
    19    16    19   2
    20    17    18   1
    21    18    20   1
    22    18    21   1
    23    20    23   1
    24    21    22  am
    25    21    33   2
    26    22    32   1
    27    23    24   1
    28    24    25   1
    29    25    26   1
    30    27    28   1
    31    28    29  ar
    32    29    30  ar
    33    29    31  ar
    34     1    34   1
    35     2    35   1
    36     5    36   1
    37     6    37   1
    38     7    38   1
    39     7    39   1
    40     8    40   1
    41     8    41   1
    42     9    42   1
    43     9    43   1
    44    10    44   1
    45    10    45   1
    46    11    46   1
    47    11    47   1
    48    12    48   1
    49    12    49   1
    50    13    50   1
    51    13    51   1
    52    14    52   1
    53    14    53   1
    54    15    54   1
    55    15    55   1
    56    17    56   1
    57    18    57   1
    58    20    58   1
    59    20    59   1
    60    22    60   1
    61    23    61   1
    62    23    62   1
    63    24    63   1
    64    24    64   1
    65    25    65   1
    66    25    66   1
    67    26    67   1
    68    26    68   1
    69    26    69   1
    70    27    70   1
    71    27    71   1
    72    28    72   1
    73    30    73   1
    74    30    74   1
    75    31    75   1
    76    31    76   1
    77    32    77   1
@<TRIPOS>SUBSTRUCTURE
     1  FA4      1

