@<TRIPOS>MOLECULE
2d1o_ligand_084
    77    77
SMALL
GAST_HUCK
****
This file was generated by PARSER (from files_GN.cpp)

@<TRIPOS>ATOM
      1 C1         24.9960    5.5701   12.6114 C.ar        1 FA4      -0.0755
      2 C2         24.5903    4.7311   13.6593 C.ar        1 FA4      -0.0668
      3 C3         25.5228    4.0728   14.5038 C.ar        1 FA4      -0.0377
      4 C4         26.9215    4.2920   14.2810 C.ar        1 FA4      -0.0050
      5 C5         27.3014    5.2149   13.2678 C.ar        1 FA4      -0.0635
      6 C6         26.3569    5.8187   12.4227 C.ar        1 FA4      -0.0754
      7 C7         24.9209    3.2084   15.5700 C.3         1 FA4      -0.0215
      8 C8         24.3372    1.8646   15.0150 C.3         1 FA4      -0.0443
      9 C9         22.8519    1.5544   15.3905 C.3         1 FA4      -0.0514
     10 C10        21.7551    2.5212   14.8335 C.3         1 FA4      -0.0529
     11 C11        21.6028    2.5677   13.2732 C.3         1 FA4      -0.0530
     12 C12        20.3338    1.8803   12.6680 C.3         1 FA4      -0.0529
     13 C13        19.2719    2.8543   12.0834 C.3         1 FA4      -0.0510
     14 C14        18.6108    3.8191   13.1130 C.3         1 FA4      -0.0361
     15 C15        17.7186    4.8960   12.4308 C.3         1 FA4       0.0374
     16 C16        17.1073    5.8106   13.3815 C.2         1 FA4       0.1782
     17 N17        17.5071    7.0777   13.4685 N.am        1 FA4      -0.2657
     18 C18        17.0150    8.0871   14.3673 C.3         1 FA4       0.1325
     19 O19        16.2247    5.3675   14.1084 O.2         1 FA4      -0.3969
     20 C20        16.6522    9.3948   13.5813 C.3         1 FA4      -0.0123
     21 C21        18.0385    8.3085   15.3887 C.2         1 FA4       0.2244
     22 N22        19.2453    8.7364   15.0501 N.am        1 FA4      -0.1623
     23 C23        15.4458   10.2047   14.1455 C.3         1 FA4      -0.0440
     24 C24        14.0699    9.6951   13.6360 C.3         1 FA4      -0.0124
     25 C25        12.8549   10.5211   14.1315 C.3         1 FA4      -0.0354
     26 N26        12.5371   10.2693   15.5403 N.4         1 FA4       0.2185
     27 C27        28.0263    3.6698   15.0808 C.3         1 FA4       0.0939
     28 N28        29.1130    3.2261   14.3026 N.pl3       1 FA4      -0.2620
     29 C29        30.2417    3.7891   14.1118 C.cat       1 FA4       0.2900
     30 N30        31.0912    3.1901   13.3642 N.pl3       1 FA4      -0.2847
     31 N31        30.5880    4.9289   14.5791 N.pl3       1 FA4      -0.2847
     32 O32        20.1998    8.9592   15.9175 O.3         1 FA4      -0.2717
     33 O33        17.7792    8.0775   16.5634 O.2         1 FA4      -0.3944
     34 H1         24.3029    6.0253   12.0111 H           1 FA4       0.0541
     35 H2         23.5898    4.6209   13.8084 H           1 FA4       0.0537
     36 H3         28.2825    5.4545   13.1086 H           1 FA4       0.0538
     37 H4         26.6626    6.4584   11.6872 H           1 FA4       0.0541
     38 H5         24.1354    3.7780   16.0764 H           1 FA4       0.0411
     39 H6         25.6450    2.9895   16.3520 H           1 FA4       0.0411
     40 H7         24.9528    1.0447   15.4008 H           1 FA4       0.0286
     41 H8         24.4398    1.8168   13.9272 H           1 FA4       0.0286
     42 H9         22.7784    1.5465   16.4857 H           1 FA4       0.0267
     43 H10        22.6185    0.5381   15.0491 H           1 FA4       0.0267
     44 H11        21.9767    3.5285   15.1965 H           1 FA4       0.0265
     45 H12        20.7952    2.2510   15.2861 H           1 FA4       0.0265
     46 H13        22.4819    2.1182   12.8072 H           1 FA4       0.0265
     47 H14        21.6121    3.6165   12.9608 H           1 FA4       0.0265
     48 H15        19.8605    1.2186   13.4000 H           1 FA4       0.0265
     49 H16        20.6619    1.2352   11.8429 H           1 FA4       0.0265
     50 H17        18.4821    2.2638   11.6096 H           1 FA4       0.0267
     51 H18        19.7470    3.4515   11.3014 H           1 FA4       0.0267
     52 H19        19.3892    4.3293   13.6844 H           1 FA4       0.0290
     53 H20        18.0110    3.2284   13.8125 H           1 FA4       0.0290
     54 H21        16.9284    4.3966   11.8618 H           1 FA4       0.0502
     55 H22        18.3243    5.4592   11.7125 H           1 FA4       0.0502
     56 H23        18.2220    7.3562   12.8708 H           1 FA4       0.1882
     57 H24        16.1000    7.7303   14.8541 H           1 FA4       0.0799
     58 H25        16.4426    9.1492   12.5364 H           1 FA4       0.0312
     59 H26        17.5181   10.0599   13.5603 H           1 FA4       0.0312
     60 H27        19.4263    8.9167   14.1108 H           1 FA4       0.2217
     61 H28        15.5575   11.2471   13.8366 H           1 FA4       0.0269
     62 H29        15.4678   10.1788   15.2386 H           1 FA4       0.0269
     63 H30        13.9345    8.6523   13.9319 H           1 FA4       0.0317
     64 H31        14.0700    9.7355   12.5420 H           1 FA4       0.0317
     65 H32        11.9743   10.2503   13.5433 H           1 FA4       0.0813
     66 H33        13.0396   11.5883   13.9930 H           1 FA4       0.0813
     67 H34        11.7251   10.8294   15.8094 H           1 FA4       0.1994
     68 H35        13.3335   10.5236   16.1275 H           1 FA4       0.1994
     69 H36        12.3189    9.2797   15.6672 H           1 FA4       0.1994
     70 H37        27.6832    2.7776   15.5995 H           1 FA4       0.0839
     71 H38        28.3377    4.3829   15.8493 H           1 FA4       0.0839
     72 H39        28.9816    2.4070   13.8618 H           1 FA4       0.2664
     73 H40        31.9170    3.5911   13.1803 H           1 FA4       0.2615
     74 H41        30.8768    2.3603   12.9868 H           1 FA4       0.2615
     75 H42        29.9972    5.4279   15.1086 H           1 FA4       0.2615
     76 H43        31.4255    5.2867   14.3666 H           1 FA4       0.2615
     77 H44        20.9215    9.3756   15.3978 H           1 FA4       0.2490
@<TRIPOS>BOND
     1     1     2  ar
     2     1     6  ar
     3     2     3  ar
     4     3     4  ar
     5     3     7   1
     6     4     5  ar
     7     4    27   1
     8     5     6  ar
     9     7     8   1
    10     8     9   1
    11     9    10   1
    12    10    11   1
    13    11    12   1
    14    12    13   1
    15    13    14   1
    16    14    15   1
    17    15    16   1
    18    16    17  am
    19    16    19   2
    20    17    18   1
    21    18    20   1
    22    18    21   1
    23    20    23   1
    24    21    22  am
    25    21    33   2
    26    22    32   1
    27    23    24   1
    28    24    25   1
    29    25    26   1
    30    27    28   1
    31    28    29  ar
    32    29    30  ar
    33    29    31  ar
    34     1    34   1
    35     2    35   1
    36     5    36   1
    37     6    37   1
    38     7    38   1
    39     7    39   1
    40     8    40   1
    41     8    41   1
    42     9    42   1
    43     9    43   1
    44    10    44   1
    45    10    45   1
    46    11    46   1
    47    11    47   1
    48    12    48   1
    49    12    49   1
    50    13    50   1
    51    13    51   1
    52    14    52   1
    53    14    53   1
    54    15    54   1
    55    15    55   1
    56    17    56   1
    57    18    57   1
    58    20    58   1
    59    20    59   1
    60    22    60   1
    61    23    61   1
    62    23    62   1
    63    24    63   1
    64    24    64   1
    65    25    65   1
    66    25    66   1
    67    26    67   1
    68    26    68   1
    69    26    69   1
    70    27    70   1
    71    27    71   1
    72    28    72   1
    73    30    73   1
    74    30    74   1
    75    31    75   1
    76    31    76   1
    77    32    77   1
@<TRIPOS>SUBSTRUCTURE
     1  FA4      1

