@<TRIPOS>MOLECULE
2d1o_ligand_000
    77    77
SMALL
GAST_HUCK
****
This file was generated by PARSER (from files_GN.cpp)

@<TRIPOS>ATOM
      1 C1         22.6302    1.3687   14.1543 C.ar        1 FA4      -0.0755
      2 C2         23.9997    1.4588   13.8815 C.ar        1 FA4      -0.0668
      3 C3         24.6153    2.6940   13.5456 C.ar        1 FA4      -0.0377
      4 C4         23.7934    3.8624   13.4114 C.ar        1 FA4      -0.0050
      5 C5         22.4096    3.7433   13.7161 C.ar        1 FA4      -0.0635
      6 C6         21.8358    2.5191   14.0894 C.ar        1 FA4      -0.0754
      7 C7         26.0916    2.6378   13.2855 C.3         1 FA4      -0.0215
      8 C8         26.9682    2.2476   14.5072 C.3         1 FA4      -0.0443
      9 C9         27.1866    3.3328   15.5998 C.3         1 FA4      -0.0514
     10 C10        27.7786    4.7026   15.1580 C.3         1 FA4      -0.0529
     11 C11        29.0638    4.6868   14.2773 C.3         1 FA4      -0.0530
     12 C12        30.2148    3.7447   14.7328 C.3         1 FA4      -0.0529
     13 C13        30.9832    4.1533   16.0232 C.3         1 FA4      -0.0510
     14 C14        32.2504    5.0370   15.7862 C.3         1 FA4      -0.0361
     15 C15        32.1028    6.4997   16.2775 C.3         1 FA4       0.0374
     16 C16        33.2334    7.3115   15.8610 C.2         1 FA4       0.1782
     17 N17        33.0816    8.1115   14.8180 N.am        1 FA4      -0.2657
     18 C18        34.0778    8.8830   14.1321 C.3         1 FA4       0.1325
     19 O19        34.3184    7.1507   16.4034 O.2         1 FA4      -0.3969
     20 C20        33.5629   10.3596   14.0867 C.3         1 FA4      -0.0123
     21 C21        34.2421    8.2504   12.8301 C.2         1 FA4       0.2244
     22 N22        35.1917    7.3554   12.6145 N.am        1 FA4      -0.1623
     23 C23        34.2584   11.3228   13.0815 C.3         1 FA4      -0.0440
     24 C24        33.5340   12.6997   12.9818 C.3         1 FA4      -0.0124
     25 C25        33.8598   13.5028   11.6925 C.3         1 FA4      -0.0354
     26 N26        32.7149   14.3199   11.2639 N.4         1 FA4       0.2185
     27 C27        24.3332    5.1943   12.9795 C.3         1 FA4       0.0939
     28 N28        23.4155    6.1125   12.4423 N.pl3       1 FA4      -0.2620
     29 C29        22.8270    7.1006   13.0087 C.cat       1 FA4       0.2900
     30 N30        22.9571    7.4350   14.2332 N.pl3       1 FA4      -0.2847
     31 N31        22.0394    7.8003   12.2850 N.pl3       1 FA4      -0.2847
     32 O32        35.3292    6.7330   11.4750 O.3         1 FA4      -0.2717
     33 O33        33.3952    8.4354   11.9679 O.2         1 FA4      -0.3944
     34 H1         22.2129    0.4686   14.4033 H           1 FA4       0.0541
     35 H2         24.5460    0.5940   13.9232 H           1 FA4       0.0537
     36 H3         21.7934    4.5522   13.6724 H           1 FA4       0.0538
     37 H4         20.8361    2.4613   14.2989 H           1 FA4       0.0541
     38 H5         26.4930    3.5607   12.8782 H           1 FA4       0.0411
     39 H6         26.2590    1.8866   12.5079 H           1 FA4       0.0411
     40 H7         27.9369    1.9289   14.1230 H           1 FA4       0.0286
     41 H8         26.5433    1.3676   14.9899 H           1 FA4       0.0286
     42 H9         27.8644    2.9099   16.3466 H           1 FA4       0.0267
     43 H10        26.2303    3.5137   16.1012 H           1 FA4       0.0267
     44 H11        27.9808    5.2858   16.0626 H           1 FA4       0.0265
     45 H12        27.0067    5.2483   14.6093 H           1 FA4       0.0265
     46 H13        29.4565    5.7030   14.2087 H           1 FA4       0.0265
     47 H14        28.7665    4.3882   13.2679 H           1 FA4       0.0265
     48 H15        30.9210    3.6459   13.9038 H           1 FA4       0.0265
     49 H16        29.8168    2.7421   14.8824 H           1 FA4       0.0265
     50 H17        31.3055    3.2303   16.5162 H           1 FA4       0.0267
     51 H18        30.2950    4.6447   16.7164 H           1 FA4       0.0267
     52 H19        32.5159    5.0408   14.7249 H           1 FA4       0.0290
     53 H20        33.0910    4.5870   16.3165 H           1 FA4       0.0290
     54 H21        32.0268    6.5164   17.3697 H           1 FA4       0.0502
     55 H22        31.1693    6.9112   15.8821 H           1 FA4       0.0502
     56 H23        32.1933    8.1341   14.4240 H           1 FA4       0.1882
     57 H24        35.0362    8.8708   14.6692 H           1 FA4       0.0799
     58 H25        33.6592   10.7850   15.0914 H           1 FA4       0.0312
     59 H26        32.4933   10.3345   13.8451 H           1 FA4       0.0312
     60 H27        35.7547    7.0910   13.3547 H           1 FA4       0.2217
     61 H28        34.2604   10.8511   12.0988 H           1 FA4       0.0269
     62 H29        35.2976   11.4748   13.3801 H           1 FA4       0.0269
     63 H30        33.7935   13.3095   13.8520 H           1 FA4       0.0317
     64 H31        32.4530   12.5351   13.0080 H           1 FA4       0.0317
     65 H32        34.0959   12.8262   10.8686 H           1 FA4       0.0813
     66 H33        34.7186   14.1578   11.8602 H           1 FA4       0.0813
     67 H34        32.9721   14.8661   10.4369 H           1 FA4       0.1994
     68 H35        32.4253   14.9503   12.0176 H           1 FA4       0.1994
     69 H36        31.9380   13.6982   11.0228 H           1 FA4       0.1994
     70 H37        25.0310    5.0396   12.1556 H           1 FA4       0.0839
     71 H38        24.9059    5.6263   13.8034 H           1 FA4       0.0839
     72 H39        23.2189    5.9916   11.5327 H           1 FA4       0.2664
     73 H40        22.4826    8.1765   14.5650 H           1 FA4       0.2615
     74 H41        23.5172    6.9544   14.8042 H           1 FA4       0.2615
     75 H42        21.9321    7.5863   11.3782 H           1 FA4       0.2615
     76 H43        21.5831    8.5269   12.6539 H           1 FA4       0.2615
     77 H44        34.9795    5.8282   11.6343 H           1 FA4       0.2490
@<TRIPOS>BOND
     1     1     2  ar
     2     1     6  ar
     3     2     3  ar
     4     3     4  ar
     5     3     7   1
     6     4     5  ar
     7     4    27   1
     8     5     6  ar
     9     7     8   1
    10     8     9   1
    11     9    10   1
    12    10    11   1
    13    11    12   1
    14    12    13   1
    15    13    14   1
    16    14    15   1
    17    15    16   1
    18    16    17  am
    19    16    19   2
    20    17    18   1
    21    18    20   1
    22    18    21   1
    23    20    23   1
    24    21    22  am
    25    21    33   2
    26    22    32   1
    27    23    24   1
    28    24    25   1
    29    25    26   1
    30    27    28   1
    31    28    29  ar
    32    29    30  ar
    33    29    31  ar
    34     1    34   1
    35     2    35   1
    36     5    36   1
    37     6    37   1
    38     7    38   1
    39     7    39   1
    40     8    40   1
    41     8    41   1
    42     9    42   1
    43     9    43   1
    44    10    44   1
    45    10    45   1
    46    11    46   1
    47    11    47   1
    48    12    48   1
    49    12    49   1
    50    13    50   1
    51    13    51   1
    52    14    52   1
    53    14    53   1
    54    15    54   1
    55    15    55   1
    56    17    56   1
    57    18    57   1
    58    20    58   1
    59    20    59   1
    60    22    60   1
    61    23    61   1
    62    23    62   1
    63    24    63   1
    64    24    64   1
    65    25    65   1
    66    25    66   1
    67    26    67   1
    68    26    68   1
    69    26    69   1
    70    27    70   1
    71    27    71   1
    72    28    72   1
    73    30    73   1
    74    30    74   1
    75    31    75   1
    76    31    76   1
    77    32    77   1
@<TRIPOS>SUBSTRUCTURE
     1  FA4      1

