@<TRIPOS>MOLECULE
2d1o_ligand_033
    77    77
SMALL
GAST_HUCK
****
This file was generated by PARSER (from files_GN.cpp)

@<TRIPOS>ATOM
      1 C1         26.0329    3.9113   12.5234 C.ar        1 FA4      -0.0755
      2 C2         26.8249    5.0031   12.9114 C.ar        1 FA4      -0.0668
      3 C3         27.8749    4.8680   13.8636 C.ar        1 FA4      -0.0377
      4 C4         28.1041    3.5738   14.4415 C.ar        1 FA4      -0.0050
      5 C5         27.2914    2.4836   14.0265 C.ar        1 FA4      -0.0635
      6 C6         26.2766    2.6489   13.0752 C.ar        1 FA4      -0.0754
      7 C7         28.6694    6.0976   14.1813 C.3         1 FA4      -0.0215
      8 C8         28.6079    6.5119   15.6764 C.3         1 FA4      -0.0443
      9 C9         29.4065    7.8131   15.9928 C.3         1 FA4      -0.0514
     10 C10        30.8042    7.5878   16.6609 C.3         1 FA4      -0.0529
     11 C11        30.8581    7.9762   18.1630 C.3         1 FA4      -0.0530
     12 C12        29.9418    7.1188   19.0952 C.3         1 FA4      -0.0529
     13 C13        29.0275    7.9772   20.0088 C.3         1 FA4      -0.0510
     14 C14        28.1688    7.1303   20.9847 C.3         1 FA4      -0.0361
     15 C15        27.3843    8.0090   21.9987 C.3         1 FA4       0.0374
     16 C16        26.9626    7.2595   23.1624 C.2         1 FA4       0.1782
     17 N17        25.9827    6.3684   23.0665 N.am        1 FA4      -0.2657
     18 C18        25.5644    5.4277   24.0732 C.3         1 FA4       0.1325
     19 O19        27.5902    7.4077   24.2126 O.2         1 FA4      -0.3969
     20 C20        25.9732    3.9977   23.5910 C.3         1 FA4      -0.0123
     21 C21        24.1424    5.6573   24.3267 C.2         1 FA4       0.2244
     22 N22        23.7563    6.8147   24.8380 N.am        1 FA4      -0.1623
     23 C23        26.0224    2.9320   24.7234 C.3         1 FA4      -0.0440
     24 C24        26.3955    1.5028   24.2406 C.3         1 FA4      -0.0124
     25 C25        27.8014    1.3403   23.5959 C.3         1 FA4      -0.0354
     26 N26        28.8832    1.2780   24.5818 N.4         1 FA4       0.2185
     27 C27        29.1018    3.2822   15.5232 C.3         1 FA4       0.0939
     28 N28        30.3288    3.9405   15.4645 N.pl3       1 FA4      -0.2620
     29 C29        31.1827    3.9331   14.5084 C.cat       1 FA4       0.2900
     30 N30        32.2625    4.6004   14.6808 N.pl3       1 FA4      -0.2847
     31 N31        31.0329    3.3331   13.3892 N.pl3       1 FA4      -0.2847
     32 O32        22.5053    7.1169   25.0967 O.3         1 FA4      -0.2717
     33 O33        23.3062    4.7902   24.0976 O.2         1 FA4      -0.3944
     34 H1         25.2765    4.0364   11.8379 H           1 FA4       0.0541
     35 H2         26.6140    5.9057   12.4918 H           1 FA4       0.0537
     36 H3         27.4183    1.5532   14.4322 H           1 FA4       0.0538
     37 H4         25.6958    1.8485   12.7987 H           1 FA4       0.0541
     38 H5         28.3045    6.9496   13.5956 H           1 FA4       0.0411
     39 H6         29.7046    5.9639   13.8623 H           1 FA4       0.0411
     40 H7         28.9694    5.6977   16.3065 H           1 FA4       0.0286
     41 H8         27.5569    6.6767   15.9205 H           1 FA4       0.0286
     42 H9         28.7835    8.4350   16.6460 H           1 FA4       0.0267
     43 H10        29.5471    8.3940   15.0712 H           1 FA4       0.0267
     44 H11        31.5418    8.2007   16.1296 H           1 FA4       0.0265
     45 H12        31.1281    6.5484   16.5469 H           1 FA4       0.0265
     46 H13        30.5979    9.0354   18.2387 H           1 FA4       0.0265
     47 H14        31.8925    7.8808   18.5077 H           1 FA4       0.0265
     48 H15        30.5774    6.4730   19.7139 H           1 FA4       0.0265
     49 H16        29.3001    6.4638   18.4972 H           1 FA4       0.0265
     50 H17        28.3603    8.5677   19.3710 H           1 FA4       0.0267
     51 H18        29.6526    8.6653   20.5853 H           1 FA4       0.0267
     52 H19        28.8365    6.4528   21.5328 H           1 FA4       0.0290
     53 H20        27.4635    6.5224   20.4091 H           1 FA4       0.0290
     54 H21        26.4951    8.4255   21.5095 H           1 FA4       0.0502
     55 H22        28.0187    8.8509   22.3008 H           1 FA4       0.0502
     56 H23        25.5474    6.2953   22.1977 H           1 FA4       0.1882
     57 H24        26.0866    5.6142   25.0181 H           1 FA4       0.0799
     58 H25        26.9768    4.0562   23.1498 H           1 FA4       0.0312
     59 H26        25.2846    3.6657   22.8022 H           1 FA4       0.0312
     60 H27        24.4422    7.4770   25.0458 H           1 FA4       0.2217
     61 H28        25.0398    2.8824   25.1999 H           1 FA4       0.0269
     62 H29        26.7428    3.2517   25.4841 H           1 FA4       0.0269
     63 H30        25.6391    1.1760   23.5199 H           1 FA4       0.0317
     64 H31        26.3340    0.8266   25.0983 H           1 FA4       0.0317
     65 H32        28.0028    2.1613   22.9081 H           1 FA4       0.0813
     66 H33        27.8186    0.4163   23.0209 H           1 FA4       0.0813
     67 H34        29.7638    1.1101   24.0842 H           1 FA4       0.1994
     68 H35        28.7103    0.5089   25.2368 H           1 FA4       0.1994
     69 H36        28.9424    2.1623   25.0976 H           1 FA4       0.1994
     70 H37        29.3214    2.2085   15.5817 H           1 FA4       0.0839
     71 H38        28.6347    3.5392   16.4807 H           1 FA4       0.0839
     72 H39        30.5799    4.4188   16.2294 H           1 FA4       0.2664
     73 H40        32.8850    4.6434   13.9885 H           1 FA4       0.2615
     74 H41        32.4182    5.0524   15.4837 H           1 FA4       0.2615
     75 H42        30.2579    2.8408   13.2128 H           1 FA4       0.2615
     76 H43        31.6991    3.4122   12.7377 H           1 FA4       0.2615
     77 H44        22.0631    7.1737   24.2168 H           1 FA4       0.2490
@<TRIPOS>BOND
     1     1     2  ar
     2     1     6  ar
     3     2     3  ar
     4     3     4  ar
     5     3     7   1
     6     4     5  ar
     7     4    27   1
     8     5     6  ar
     9     7     8   1
    10     8     9   1
    11     9    10   1
    12    10    11   1
    13    11    12   1
    14    12    13   1
    15    13    14   1
    16    14    15   1
    17    15    16   1
    18    16    17  am
    19    16    19   2
    20    17    18   1
    21    18    20   1
    22    18    21   1
    23    20    23   1
    24    21    22  am
    25    21    33   2
    26    22    32   1
    27    23    24   1
    28    24    25   1
    29    25    26   1
    30    27    28   1
    31    28    29  ar
    32    29    30  ar
    33    29    31  ar
    34     1    34   1
    35     2    35   1
    36     5    36   1
    37     6    37   1
    38     7    38   1
    39     7    39   1
    40     8    40   1
    41     8    41   1
    42     9    42   1
    43     9    43   1
    44    10    44   1
    45    10    45   1
    46    11    46   1
    47    11    47   1
    48    12    48   1
    49    12    49   1
    50    13    50   1
    51    13    51   1
    52    14    52   1
    53    14    53   1
    54    15    54   1
    55    15    55   1
    56    17    56   1
    57    18    57   1
    58    20    58   1
    59    20    59   1
    60    22    60   1
    61    23    61   1
    62    23    62   1
    63    24    63   1
    64    24    64   1
    65    25    65   1
    66    25    66   1
    67    26    67   1
    68    26    68   1
    69    26    69   1
    70    27    70   1
    71    27    71   1
    72    28    72   1
    73    30    73   1
    74    30    74   1
    75    31    75   1
    76    31    76   1
    77    32    77   1
@<TRIPOS>SUBSTRUCTURE
     1  FA4      1

