@<TRIPOS>MOLECULE
2d1o_ligand_041
    77    77
SMALL
GAST_HUCK
****
This file was generated by PARSER (from files_GN.cpp)

@<TRIPOS>ATOM
      1 C1         20.5800    7.3688   14.5436 C.ar        1 FA4      -0.0755
      2 C2         20.7454    6.0613   15.0280 C.ar        1 FA4      -0.0668
      3 C3         21.6678    5.1628   14.4390 C.ar        1 FA4      -0.0377
      4 C4         22.4769    5.6174   13.3428 C.ar        1 FA4      -0.0050
      5 C5         22.2835    6.9451   12.8695 C.ar        1 FA4      -0.0635
      6 C6         21.3499    7.8084   13.4619 C.ar        1 FA4      -0.0754
      7 C7         21.7155    3.7803   15.0185 C.3         1 FA4      -0.0215
      8 C8         22.6579    3.6492   16.2625 C.3         1 FA4      -0.0443
      9 C9         23.6840    2.4756   16.1780 C.3         1 FA4      -0.0514
     10 C10        25.1110    2.9339   15.7424 C.3         1 FA4      -0.0529
     11 C11        26.0471    1.7793   15.2801 C.3         1 FA4      -0.0530
     12 C12        27.5800    2.0782   15.1478 C.3         1 FA4      -0.0529
     13 C13        28.0716    3.5562   15.3278 C.3         1 FA4      -0.0510
     14 C14        29.1028    3.7858   16.4794 C.3         1 FA4      -0.0361
     15 C15        30.6078    3.7703   16.0472 C.3         1 FA4       0.0374
     16 C16        31.2521    5.0653   16.1666 C.2         1 FA4       0.1782
     17 N17        31.8025    5.6502   15.1099 N.am        1 FA4      -0.2657
     18 C18        32.4768    6.9234   15.0791 C.3         1 FA4       0.1325
     19 O19        31.1475    5.6801   17.2306 O.2         1 FA4      -0.3969
     20 C20        31.7229    8.0683   15.8612 C.3         1 FA4      -0.0123
     21 C21        32.6562    7.2648   13.6750 C.2         1 FA4       0.2244
     22 N22        33.8162    7.1264   13.0456 N.am        1 FA4      -0.1623
     23 C23        32.3635    8.5736   17.1884 C.3         1 FA4      -0.0440
     24 C24        33.8214    9.1181   17.1467 C.3         1 FA4      -0.0124
     25 C25        34.1204   10.1218   16.0054 C.3         1 FA4      -0.0354
     26 N26        35.4234   10.7712   16.2016 N.4         1 FA4       0.2185
     27 C27        23.5242    4.8048   12.6496 C.3         1 FA4       0.0939
     28 N28        24.7741    5.4448   12.6781 N.pl3       1 FA4      -0.2620
     29 C29        25.9407    4.9083   12.7127 C.cat       1 FA4       0.2900
     30 N30        26.1620    3.6454   12.7425 N.pl3       1 FA4      -0.2847
     31 N31        26.9568    5.6871   12.7166 N.pl3       1 FA4      -0.2847
     32 O32        33.9346    7.4065   11.7779 O.3         1 FA4      -0.2717
     33 O33        31.6923    7.6833   13.0414 O.2         1 FA4      -0.3944
     34 H1         19.8960    7.9983   14.9759 H           1 FA4       0.0541
     35 H2         20.1660    5.7680   15.8225 H           1 FA4       0.0537
     36 H3         22.8376    7.2997   12.0883 H           1 FA4       0.0538
     37 H4         21.2463    8.7656   13.1136 H           1 FA4       0.0541
     38 H5         21.9647    3.0373   14.2688 H           1 FA4       0.0411
     39 H6         20.6996    3.4996   15.3194 H           1 FA4       0.0411
     40 H7         22.0303    3.4962   17.1440 H           1 FA4       0.0286
     41 H8         23.2011    4.5833   16.4406 H           1 FA4       0.0286
     42 H9         23.3054    1.6989   15.5031 H           1 FA4       0.0267
     43 H10        23.7710    2.0115   17.1680 H           1 FA4       0.0267
     44 H11        25.5742    3.4586   16.5834 H           1 FA4       0.0265
     45 H12        25.0230    3.6430   14.9128 H           1 FA4       0.0265
     46 H13        25.6728    1.4238   14.3134 H           1 FA4       0.0265
     47 H14        25.9335    0.9496   15.9893 H           1 FA4       0.0265
     48 H15        27.8936    1.7361   14.1530 H           1 FA4       0.0265
     49 H16        28.1056    1.4295   15.8541 H           1 FA4       0.0265
     50 H17        27.2229    4.2079   15.5397 H           1 FA4       0.0267
     51 H18        28.4895    3.9102   14.3811 H           1 FA4       0.0267
     52 H19        28.9507    3.0316   17.2614 H           1 FA4       0.0290
     53 H20        28.8631    4.7498   16.9490 H           1 FA4       0.0290
     54 H21        30.6999    3.4076   15.0159 H           1 FA4       0.0502
     55 H22        31.1561    3.0536   16.6696 H           1 FA4       0.0502
     56 H23        31.7855    5.1390   14.2793 H           1 FA4       0.1882
     57 H24        33.4595    6.7648   15.5346 H           1 FA4       0.0799
     58 H25        30.7160    7.7175   16.1098 H           1 FA4       0.0312
     59 H26        31.5796    8.9484   15.2256 H           1 FA4       0.0312
     60 H27        34.5841    6.7891   13.5350 H           1 FA4       0.2217
     61 H28        32.3314    7.7674   17.9247 H           1 FA4       0.0269
     62 H29        31.7276    9.3761   17.5764 H           1 FA4       0.0269
     63 H30        34.5244    8.2848   17.0825 H           1 FA4       0.0317
     64 H31        34.0067    9.6243   18.0996 H           1 FA4       0.0317
     65 H32        33.3536   10.8984   15.9751 H           1 FA4       0.0813
     66 H33        34.1349    9.6019   15.0459 H           1 FA4       0.0813
     67 H34        35.6348   11.3626   15.3953 H           1 FA4       0.1994
     68 H35        36.1545   10.0639   16.3040 H           1 FA4       0.1994
     69 H36        35.3928   11.3504   17.0437 H           1 FA4       0.1994
     70 H37        23.2349    4.6794   11.6021 H           1 FA4       0.0839
     71 H38        23.6229    3.8120   13.0632 H           1 FA4       0.0839
     72 H39        24.7615    6.3741   12.6453 H           1 FA4       0.2664
     73 H40        27.0385    3.3221   12.7579 H           1 FA4       0.2615
     74 H41        25.4487    3.0459   12.7352 H           1 FA4       0.2615
     75 H42        26.8444    6.6090   12.6517 H           1 FA4       0.2615
     76 H43        27.8213    5.3337   12.7375 H           1 FA4       0.2615
     77 H44        34.9005    7.4522   11.6069 H           1 FA4       0.2490
@<TRIPOS>BOND
     1     1     2  ar
     2     1     6  ar
     3     2     3  ar
     4     3     4  ar
     5     3     7   1
     6     4     5  ar
     7     4    27   1
     8     5     6  ar
     9     7     8   1
    10     8     9   1
    11     9    10   1
    12    10    11   1
    13    11    12   1
    14    12    13   1
    15    13    14   1
    16    14    15   1
    17    15    16   1
    18    16    17  am
    19    16    19   2
    20    17    18   1
    21    18    20   1
    22    18    21   1
    23    20    23   1
    24    21    22  am
    25    21    33   2
    26    22    32   1
    27    23    24   1
    28    24    25   1
    29    25    26   1
    30    27    28   1
    31    28    29  ar
    32    29    30  ar
    33    29    31  ar
    34     1    34   1
    35     2    35   1
    36     5    36   1
    37     6    37   1
    38     7    38   1
    39     7    39   1
    40     8    40   1
    41     8    41   1
    42     9    42   1
    43     9    43   1
    44    10    44   1
    45    10    45   1
    46    11    46   1
    47    11    47   1
    48    12    48   1
    49    12    49   1
    50    13    50   1
    51    13    51   1
    52    14    52   1
    53    14    53   1
    54    15    54   1
    55    15    55   1
    56    17    56   1
    57    18    57   1
    58    20    58   1
    59    20    59   1
    60    22    60   1
    61    23    61   1
    62    23    62   1
    63    24    63   1
    64    24    64   1
    65    25    65   1
    66    25    66   1
    67    26    67   1
    68    26    68   1
    69    26    69   1
    70    27    70   1
    71    27    71   1
    72    28    72   1
    73    30    73   1
    74    30    74   1
    75    31    75   1
    76    31    76   1
    77    32    77   1
@<TRIPOS>SUBSTRUCTURE
     1  FA4      1

