@<TRIPOS>MOLECULE
2d3u_ligand_031
    40    42
SMALL
GAST_HUCK
****
This file was generated by PARSER (from files_GN.cpp)

@<TRIPOS>ATOM
      1 C1          9.2995   31.5196   81.0065 C.ar        1 CCT      -0.0292
      2 C2          9.4029   30.8219   82.2315 C.ar        1 CCT       0.0919
      3 C3          8.4348   31.0465   83.2327 C.ar        1 CCT      -0.0292
      4 C4          7.3803   31.9469   83.0043 C.ar        1 CCT      -0.0447
      5 C5          7.2549   32.6475   81.7754 C.ar        1 CCT      -0.0014
      6 C6          8.2419   32.4127   80.7850 C.ar        1 CCT      -0.0447
      7 C7          4.0776   35.0644   81.6747 C.2         1 CCT       0.0659
      8 C8          4.5013   34.7938   80.3670 C.2         1 CCT       0.0654
      9 C9          5.6478   33.9791   80.2982 C.2         1 CCT      -0.0309
     10 C10         6.1580   33.5319   81.5331 C.2         1 CCT       0.0389
     11 S11         5.1567   34.2504   82.7336 S.3         1 CCT      -0.0497
     12 C12        10.3727   29.9738   82.4288 C.1         1 CCT       0.0956
     13 N13        11.2262   29.2255   82.6032 N.1         1 CCT      -0.3326
     14 C14         2.9957   35.8484   82.0778 C.2         1 CCT       0.0483
     15 O15         1.7630   35.5717   81.5999 O.co2       1 CCT      -0.5727
     16 O16         3.1160   36.6565   83.1602 O.co2       1 CCT      -0.5727
     17 N17         3.8739   35.3117   79.2821 N.am        1 CCT      -0.1970
     18 S18         4.5393   36.6375   78.4850 S.o2        1 CCT       0.0842
     19 C19         5.8410   35.5168   76.2217 C.ar        1 CCT      -0.0191
     20 C20         5.5216   36.6543   77.0281 C.ar        1 CCT       0.1144
     21 C21         6.0468   37.9192   76.6706 C.ar        1 CCT      -0.0414
     22 C22         6.8897   38.0740   75.5617 C.ar        1 CCT      -0.0669
     23 C23         7.2212   36.9614   74.7777 C.ar        1 CCT      -0.0685
     24 C24         6.7038   35.6977   75.1084 C.ar        1 CCT      -0.0587
     25 C25         5.3547   34.1294   76.4236 C.3         1 CCT      -0.0292
     26 O26         5.1428   37.6252   79.5743 O.2         1 CCT      -0.1463
     27 O27         3.2385   37.4712   78.0967 O.2         1 CCT      -0.1463
     28 H1          9.9944   31.3742   80.2638 H           1 CCT       0.0708
     29 H2          8.4826   30.5511   84.1262 H           1 CCT       0.0708
     30 H3          6.6873   32.0679   83.7490 H           1 CCT       0.0633
     31 H4          8.2054   32.9028   79.8904 H           1 CCT       0.0633
     32 H5          6.0615   33.7181   79.4047 H           1 CCT       0.0467
     33 H6          2.8988   35.2782   79.2896 H           1 CCT       0.2106
     34 H7          5.8259   38.7553   77.2266 H           1 CCT       0.0619
     35 H8          7.2724   38.9890   75.3286 H           1 CCT       0.0560
     36 H9          7.8375   37.0643   73.9661 H           1 CCT       0.0599
     37 H10         6.9616   34.9000   74.5191 H           1 CCT       0.0557
     38 H11         4.5962   34.0491   77.2001 H           1 CCT       0.0391
     39 H12         6.1954   33.4884   76.6921 H           1 CCT       0.0391
     40 H13         4.9019   33.7702   75.4998 H           1 CCT       0.0391
@<TRIPOS>BOND
     1     1     2  ar
     2     6     1  ar
     3     3     2  ar
     4     2    12   1
     5     4     3  ar
     6     5     4  ar
     7     5     6  ar
     8    10     5   1
     9     8     7   2
    10     7    11   1
    11     7    14   1
    12     9     8   1
    13     8    17   1
    14     9    10   2
    15    10    11   1
    16    12    13   3
    17    14    15  ar
    18    14    16  ar
    19    17    18  am
    20    18    20   1
    21    18    26   2
    22    18    27   2
    23    20    19  ar
    24    19    24  ar
    25    19    25   1
    26    20    21  ar
    27    21    22  ar
    28    22    23  ar
    29    23    24  ar
    30     1    28   1
    31     3    29   1
    32     4    30   1
    33     6    31   1
    34     9    32   1
    35    17    33   1
    36    21    34   1
    37    22    35   1
    38    23    36   1
    39    24    37   1
    40    25    38   1
    41    25    39   1
    42    25    40   1
@<TRIPOS>SUBSTRUCTURE
     1  CCT      1

