@<TRIPOS>MOLECULE
2d3u_ligand_037
    40    42
SMALL
GAST_HUCK
****
This file was generated by PARSER (from files_GN.cpp)

@<TRIPOS>ATOM
      1 C1          9.2101   36.0854   82.9724 C.ar        1 CCT      -0.0292
      2 C2          9.6857   34.7663   83.0824 C.ar        1 CCT       0.0919
      3 C3          9.2605   33.8046   82.1441 C.ar        1 CCT      -0.0292
      4 C4          8.3818   34.1678   81.1063 C.ar        1 CCT      -0.0447
      5 C5          7.9014   35.4967   80.9715 C.ar        1 CCT      -0.0014
      6 C6          8.3296   36.4392   81.9377 C.ar        1 CCT      -0.0447
      7 C7          5.5704   37.0740   78.0941 C.2         1 CCT       0.0659
      8 C8          5.9723   35.7816   77.7485 C.2         1 CCT       0.0654
      9 C9          6.7478   35.1335   78.7311 C.2         1 CCT      -0.0309
     10 C10         7.0548   35.8810   79.8756 C.2         1 CCT       0.0389
     11 S11         6.2451   37.3927   79.6350 S.3         1 CCT      -0.0497
     12 C12        10.5269   34.4365   84.0216 C.1         1 CCT       0.0956
     13 N13        11.2767   34.1484   84.8445 N.1         1 CCT      -0.3326
     14 C14         4.7542   37.9422   77.3659 C.2         1 CCT       0.0483
     15 O15         3.4005   37.7681   77.4603 O.co2       1 CCT      -0.5727
     16 O16         5.2173   39.1579   76.9735 O.co2       1 CCT      -0.5727
     17 N17         5.7720   35.1947   76.5503 N.am        1 CCT      -0.1970
     18 S18         6.7497   35.6761   75.2617 S.o2        1 CCT       0.0842
     19 C19         9.2997   36.9356   75.1751 C.ar        1 CCT      -0.0191
     20 C20         8.4694   35.8585   75.6119 C.ar        1 CCT       0.1144
     21 C21         9.0302   34.8280   76.4115 C.ar        1 CCT      -0.0414
     22 C22        10.3667   34.8816   76.8402 C.ar        1 CCT      -0.0669
     23 C23        11.1696   35.9673   76.4724 C.ar        1 CCT      -0.0685
     24 C24        10.6407   36.9763   75.6389 C.ar        1 CCT      -0.0587
     25 C25         8.9095   38.0326   74.2643 C.3         1 CCT      -0.0292
     26 O26         5.9884   36.7433   74.3589 O.2         1 CCT      -0.1463
     27 O27         6.6935   34.3715   74.3437 O.2         1 CCT      -0.1463
     28 H1          9.5047   36.8064   83.6440 H           1 CCT       0.0708
     29 H2          9.5927   32.8347   82.1964 H           1 CCT       0.0708
     30 H3          8.1042   33.4332   80.4571 H           1 CCT       0.0633
     31 H4          8.0171   37.4120   81.8929 H           1 CCT       0.0633
     32 H5          7.1047   34.1842   78.5799 H           1 CCT       0.0467
     33 H6          5.5443   34.2544   76.5607 H           1 CCT       0.2106
     34 H7          8.4645   34.0237   76.7058 H           1 CCT       0.0619
     35 H8         10.7509   34.1469   77.4377 H           1 CCT       0.0560
     36 H9         12.1366   36.0320   76.8013 H           1 CCT       0.0599
     37 H10        11.2729   37.7571   75.3692 H           1 CCT       0.0557
     38 H11         7.9149   37.9415   73.8332 H           1 CCT       0.0391
     39 H12         9.6167   38.0804   73.4233 H           1 CCT       0.0391
     40 H13         8.9656   38.9810   74.8099 H           1 CCT       0.0391
@<TRIPOS>BOND
     1     1     2  ar
     2     6     1  ar
     3     3     2  ar
     4     2    12   1
     5     4     3  ar
     6     5     4  ar
     7     5     6  ar
     8    10     5   1
     9     8     7   2
    10     7    11   1
    11     7    14   1
    12     9     8   1
    13     8    17   1
    14     9    10   2
    15    10    11   1
    16    12    13   3
    17    14    15  ar
    18    14    16  ar
    19    17    18  am
    20    18    20   1
    21    18    26   2
    22    18    27   2
    23    20    19  ar
    24    19    24  ar
    25    19    25   1
    26    20    21  ar
    27    21    22  ar
    28    22    23  ar
    29    23    24  ar
    30     1    28   1
    31     3    29   1
    32     4    30   1
    33     6    31   1
    34     9    32   1
    35    17    33   1
    36    21    34   1
    37    22    35   1
    38    23    36   1
    39    24    37   1
    40    25    38   1
    41    25    39   1
    42    25    40   1
@<TRIPOS>SUBSTRUCTURE
     1  CCT      1

