@<TRIPOS>MOLECULE
2d3u_ligand_022
    40    42
SMALL
GAST_HUCK
****
This file was generated by PARSER (from files_GN.cpp)

@<TRIPOS>ATOM
      1 C1          8.9384   33.4354   80.7554 C.ar        1 CCT      -0.0292
      2 C2          8.5216   33.0865   82.0578 C.ar        1 CCT       0.0919
      3 C3          7.3627   33.6805   82.5923 C.ar        1 CCT      -0.0292
      4 C4          6.6259   34.6088   81.8286 C.ar        1 CCT      -0.0447
      5 C5          7.0202   34.9672   80.5134 C.ar        1 CCT      -0.0014
      6 C6          8.1963   34.3655   79.9999 C.ar        1 CCT      -0.0447
      7 C7          5.3833   37.6857   78.0696 C.2         1 CCT       0.0659
      8 C8          4.4398   37.2462   79.0146 C.2         1 CCT       0.0654
      9 C9          4.9268   36.2539   79.8878 C.2         1 CCT      -0.0309
     10 C10         6.2758   35.8992   79.7436 C.2         1 CCT       0.0389
     11 S11         6.8403   36.8389   78.4174 S.3         1 CCT      -0.0497
     12 C12         9.2007   32.2312   82.7644 C.1         1 CCT       0.0956
     13 N13         9.7963   31.4743   83.3910 N.1         1 CCT      -0.3326
     14 C14         5.2579   38.6133   77.0098 C.2         1 CCT       0.0483
     15 O15         4.2782   39.5466   76.9796 O.co2       1 CCT      -0.5727
     16 O16         6.0938   38.5590   75.9457 O.co2       1 CCT      -0.5727
     17 N17         3.1430   37.6325   79.0394 N.am        1 CCT      -0.1970
     18 S18         2.6343   38.9632   79.9490 S.o2        1 CCT       0.0842
     19 C19         1.1673   39.7038   82.2287 C.ar        1 CCT      -0.0191
     20 C20         2.0434   38.7769   81.5893 C.ar        1 CCT       0.1144
     21 C21         2.4763   37.6333   82.3072 C.ar        1 CCT      -0.0414
     22 C22         2.0085   37.3732   83.6031 C.ar        1 CCT      -0.0669
     23 C23         1.0903   38.2475   84.1989 C.ar        1 CCT      -0.0685
     24 C24         0.6710   39.3997   83.5182 C.ar        1 CCT      -0.0587
     25 C25         0.7193   40.9874   81.6302 C.3         1 CCT      -0.0292
     26 O26         1.4275   39.5178   79.0739 O.2         1 CCT      -0.1463
     27 O27         3.6923   40.1538   79.8697 O.2         1 CCT      -0.1463
     28 H1          9.7762   33.0165   80.3431 H           1 CCT       0.0708
     29 H2          7.0421   33.4493   83.5391 H           1 CCT       0.0708
     30 H3          5.7973   35.0320   82.2618 H           1 CCT       0.0633
     31 H4          8.5225   34.5809   79.0567 H           1 CCT       0.0633
     32 H5          4.3128   35.7955   80.5626 H           1 CCT       0.0467
     33 H6          2.5880   37.3837   78.2742 H           1 CCT       0.2106
     34 H7          3.1341   36.9771   81.8923 H           1 CCT       0.0619
     35 H8          2.3228   36.5485   84.1062 H           1 CCT       0.0560
     36 H9          0.7284   38.0510   85.1370 H           1 CCT       0.0599
     37 H10         0.0170   40.0311   83.9794 H           1 CCT       0.0557
     38 H11         1.3482   41.3222   80.7918 H           1 CCT       0.0391
     39 H12         0.7391   41.7837   82.3757 H           1 CCT       0.0391
     40 H13        -0.3015   40.8758   81.2630 H           1 CCT       0.0391
@<TRIPOS>BOND
     1     1     2  ar
     2     6     1  ar
     3     3     2  ar
     4     2    12   1
     5     4     3  ar
     6     5     4  ar
     7     5     6  ar
     8    10     5   1
     9     8     7   2
    10     7    11   1
    11     7    14   1
    12     9     8   1
    13     8    17   1
    14     9    10   2
    15    10    11   1
    16    12    13   3
    17    14    15  ar
    18    14    16  ar
    19    17    18  am
    20    18    20   1
    21    18    26   2
    22    18    27   2
    23    20    19  ar
    24    19    24  ar
    25    19    25   1
    26    20    21  ar
    27    21    22  ar
    28    22    23  ar
    29    23    24  ar
    30     1    28   1
    31     3    29   1
    32     4    30   1
    33     6    31   1
    34     9    32   1
    35    17    33   1
    36    21    34   1
    37    22    35   1
    38    23    36   1
    39    24    37   1
    40    25    38   1
    41    25    39   1
    42    25    40   1
@<TRIPOS>SUBSTRUCTURE
     1  CCT      1

