@<TRIPOS>MOLECULE
2d3u_ligand_035
    40    42
SMALL
GAST_HUCK
****
This file was generated by PARSER (from files_GN.cpp)

@<TRIPOS>ATOM
      1 C1          2.2573   32.5512   80.3163 C.ar        1 CCT      -0.0292
      2 C2          1.1237   31.8348   80.7474 C.ar        1 CCT       0.0919
      3 C3          0.7350   30.6774   80.0430 C.ar        1 CCT      -0.0292
      4 C4          1.4582   30.2558   78.9136 C.ar        1 CCT      -0.0447
      5 C5          2.5858   30.9764   78.4413 C.ar        1 CCT      -0.0014
      6 C6          2.9774   32.1222   79.1819 C.ar        1 CCT      -0.0447
      7 C7          4.8060   30.4618   75.1562 C.2         1 CCT       0.0659
      8 C8          3.6436   29.6913   75.0616 C.2         1 CCT       0.0654
      9 C9          2.8176   29.7667   76.1995 C.2         1 CCT      -0.0309
     10 C10         3.2613   30.6107   77.2335 C.2         1 CCT       0.0389
     11 S11         4.7791   31.2204   76.6957 S.3         1 CCT      -0.0497
     12 C12         0.4263   32.2507   81.7644 C.1         1 CCT       0.0956
     13 N13        -0.1955   32.6198   82.6578 N.1         1 CCT      -0.3326
     14 C14         5.8436   30.6202   74.2216 C.2         1 CCT       0.0483
     15 O15         7.0190   29.9614   74.4069 O.co2       1 CCT      -0.5727
     16 O16         5.6581   31.3347   73.0799 O.co2       1 CCT      -0.5727
     17 N17         3.3469   28.9459   73.9766 N.am        1 CCT      -0.1970
     18 S18         3.3654   27.2645   74.0263 S.o2        1 CCT       0.0842
     19 C19         0.6817   26.8060   74.7477 C.ar        1 CCT      -0.0191
     20 C20         2.0315   26.3365   74.6616 C.ar        1 CCT       0.1144
     21 C21         2.3327   25.0032   75.0629 C.ar        1 CCT      -0.0414
     22 C22         1.3293   24.1523   75.5541 C.ar        1 CCT      -0.0669
     23 C23         0.0039   24.6136   75.6631 C.ar        1 CCT      -0.0685
     24 C24        -0.3067   25.9303   75.2605 C.ar        1 CCT      -0.0587
     25 C25         0.2087   28.1428   74.2961 C.3         1 CCT      -0.0292
     26 O26         4.8034   26.7958   74.5271 O.2         1 CCT      -0.1463
     27 O27         3.4109   26.8456   72.4881 O.2         1 CCT      -0.1463
     28 H1          2.5615   33.3984   80.8038 H           1 CCT       0.0708
     29 H2         -0.0856   30.1332   80.3352 H           1 CCT       0.0708
     30 H3          1.1355   29.4141   78.4314 H           1 CCT       0.0633
     31 H4          3.7782   32.6918   78.8843 H           1 CCT       0.0633
     32 H5          1.9141   29.2923   76.2371 H           1 CCT       0.0467
     33 H6          3.4456   29.3449   73.0948 H           1 CCT       0.2106
     34 H7          3.2886   24.6346   74.9910 H           1 CCT       0.0619
     35 H8          1.5628   23.1935   75.8332 H           1 CCT       0.0560
     36 H9         -0.7274   23.9911   76.0097 H           1 CCT       0.0599
     37 H10        -1.2831   26.2321   75.3266 H           1 CCT       0.0557
     38 H11         0.9820   28.7289   73.8027 H           1 CCT       0.0391
     39 H12        -0.1546   28.6981   75.1721 H           1 CCT       0.0391
     40 H13        -0.6068   28.0159   73.5697 H           1 CCT       0.0391
@<TRIPOS>BOND
     1     1     2  ar
     2     6     1  ar
     3     3     2  ar
     4     2    12   1
     5     4     3  ar
     6     5     4  ar
     7     5     6  ar
     8    10     5   1
     9     8     7   2
    10     7    11   1
    11     7    14   1
    12     9     8   1
    13     8    17   1
    14     9    10   2
    15    10    11   1
    16    12    13   3
    17    14    15  ar
    18    14    16  ar
    19    17    18  am
    20    18    20   1
    21    18    26   2
    22    18    27   2
    23    20    19  ar
    24    19    24  ar
    25    19    25   1
    26    20    21  ar
    27    21    22  ar
    28    22    23  ar
    29    23    24  ar
    30     1    28   1
    31     3    29   1
    32     4    30   1
    33     6    31   1
    34     9    32   1
    35    17    33   1
    36    21    34   1
    37    22    35   1
    38    23    36   1
    39    24    37   1
    40    25    38   1
    41    25    39   1
    42    25    40   1
@<TRIPOS>SUBSTRUCTURE
     1  CCT      1

