@<TRIPOS>MOLECULE
2d3u_ligand_028
    40    42
SMALL
GAST_HUCK
****
This file was generated by PARSER (from files_GN.cpp)

@<TRIPOS>ATOM
      1 C1         -0.2910   42.3747   82.8653 C.ar        1 CCT      -0.0292
      2 C2         -0.8051   43.2625   81.9006 C.ar        1 CCT       0.0919
      3 C3         -0.6070   42.9830   80.5338 C.ar        1 CCT      -0.0292
      4 C4          0.1073   41.8332   80.1393 C.ar        1 CCT      -0.0447
      5 C5          0.6420   40.9339   81.0925 C.ar        1 CCT      -0.0014
      6 C6          0.4198   41.2277   82.4631 C.ar        1 CCT      -0.0447
      7 C7          2.5378   37.4488   80.5792 C.2         1 CCT       0.0659
      8 C8          2.5105   38.1392   79.3549 C.2         1 CCT       0.0654
      9 C9          1.8578   39.3877   79.4323 C.2         1 CCT      -0.0309
     10 C10         1.3631   39.7634   80.6956 C.2         1 CCT       0.0389
     11 S11         1.7626   38.4514   81.7366 S.3         1 CCT      -0.0497
     12 C12        -1.4659   44.3243   82.2761 C.1         1 CCT       0.0956
     13 N13        -2.0492   45.2521   82.6133 N.1         1 CCT      -0.3326
     14 C14         2.9545   36.1502   80.8769 C.2         1 CCT       0.0483
     15 O15         3.4327   35.8643   82.1025 O.co2       1 CCT      -0.5727
     16 O16         2.4549   35.1343   80.1263 O.co2       1 CCT      -0.5727
     17 N17         3.0560   37.7043   78.1868 N.am        1 CCT      -0.1970
     18 S18         4.6614   38.0826   77.8109 S.o2        1 CCT       0.0842
     19 C19         5.6026   35.5231   77.0419 C.ar        1 CCT      -0.0191
     20 C20         5.5371   36.9284   76.8058 C.ar        1 CCT       0.1144
     21 C21         6.2240   37.4497   75.6846 C.ar        1 CCT      -0.0414
     22 C22         6.9023   36.6068   74.7908 C.ar        1 CCT      -0.0669
     23 C23         6.9149   35.2190   75.0003 C.ar        1 CCT      -0.0685
     24 C24         6.2697   34.6809   76.1200 C.ar        1 CCT      -0.0587
     25 C25         5.0454   34.8563   78.2381 C.3         1 CCT      -0.0292
     26 O26         5.4995   38.2635   79.1496 O.2         1 CCT      -0.1463
     27 O27         4.6383   39.5359   77.1708 O.2         1 CCT      -0.1463
     28 H1         -0.4255   42.5481   83.8658 H           1 CCT       0.0708
     29 H2         -0.9826   43.6059   79.8119 H           1 CCT       0.0708
     30 H3          0.2168   41.6611   79.1391 H           1 CCT       0.0633
     31 H4          0.7821   40.6192   83.1987 H           1 CCT       0.0633
     32 H5          1.7698   39.9889   78.6096 H           1 CCT       0.0467
     33 H6          2.4606   37.7288   77.4210 H           1 CCT       0.2106
     34 H7          6.2349   38.4533   75.5003 H           1 CCT       0.0619
     35 H8          7.3836   37.0033   73.9837 H           1 CCT       0.0560
     36 H9          7.4054   34.6023   74.3491 H           1 CCT       0.0599
     37 H10         6.3085   33.6665   76.2723 H           1 CCT       0.0557
     38 H11         4.7460   35.5958   78.9676 H           1 CCT       0.0391
     39 H12         5.7989   34.2207   78.7133 H           1 CCT       0.0391
     40 H13         4.1854   34.2412   77.9567 H           1 CCT       0.0391
@<TRIPOS>BOND
     1     1     2  ar
     2     6     1  ar
     3     3     2  ar
     4     2    12   1
     5     4     3  ar
     6     5     4  ar
     7     5     6  ar
     8    10     5   1
     9     8     7   2
    10     7    11   1
    11     7    14   1
    12     9     8   1
    13     8    17   1
    14     9    10   2
    15    10    11   1
    16    12    13   3
    17    14    15  ar
    18    14    16  ar
    19    17    18  am
    20    18    20   1
    21    18    26   2
    22    18    27   2
    23    20    19  ar
    24    19    24  ar
    25    19    25   1
    26    20    21  ar
    27    21    22  ar
    28    22    23  ar
    29    23    24  ar
    30     1    28   1
    31     3    29   1
    32     4    30   1
    33     6    31   1
    34     9    32   1
    35    17    33   1
    36    21    34   1
    37    22    35   1
    38    23    36   1
    39    24    37   1
    40    25    38   1
    41    25    39   1
    42    25    40   1
@<TRIPOS>SUBSTRUCTURE
     1  CCT      1

