@<TRIPOS>MOLECULE
2d3u_ligand_007
    40    42
SMALL
GAST_HUCK
****
This file was generated by PARSER (from files_GN.cpp)

@<TRIPOS>ATOM
      1 C1          3.1336   30.9969   77.7106 C.ar        1 CCT      -0.0292
      2 C2          3.4554   30.0871   76.6838 C.ar        1 CCT       0.0919
      3 C3          4.7878   29.9951   76.2373 C.ar        1 CCT      -0.0292
      4 C4          5.7874   30.7969   76.8204 C.ar        1 CCT      -0.0447
      5 C5          5.4887   31.7132   77.8593 C.ar        1 CCT      -0.0014
      6 C6          4.1389   31.8004   78.2861 C.ar        1 CCT      -0.0447
      7 C7          7.9642   34.0680   79.9590 C.2         1 CCT       0.0659
      8 C8          8.5993   33.6260   78.7850 C.2         1 CCT       0.0654
      9 C9          7.8154   32.7510   78.0067 C.2         1 CCT      -0.0309
     10 C10         6.5040   32.5136   78.4633 C.2         1 CCT       0.0389
     11 S11         6.3737   33.4188   79.9243 S.3         1 CCT      -0.0497
     12 C12         2.5357   29.3282   76.1608 C.1         1 CCT       0.0956
     13 N13         1.7237   28.6556   75.6964 N.1         1 CCT      -0.3326
     14 C14         8.4504   34.9113   80.9678 C.2         1 CCT       0.0483
     15 O15         9.7258   34.7734   81.3961 O.co2       1 CCT      -0.5727
     16 O16         7.6235   35.7777   81.5971 O.co2       1 CCT      -0.5727
     17 N17         9.8178   34.0046   78.3263 N.am        1 CCT      -0.1970
     18 S18        10.2055   35.6037   77.9296 S.o2        1 CCT       0.0842
     19 C19         9.2143   37.3267   75.8696 C.ar        1 CCT      -0.0191
     20 C20         9.0202   36.5944   77.0795 C.ar        1 CCT       0.1144
     21 C21         7.7504   36.6836   77.7115 C.ar        1 CCT      -0.0414
     22 C22         6.6813   37.3768   77.1448 C.ar        1 CCT      -0.0669
     23 C23         6.8558   38.0485   75.9333 C.ar        1 CCT      -0.0685
     24 C24         8.1167   38.0329   75.3072 C.ar        1 CCT      -0.0587
     25 C25        10.4843   37.4716   75.1022 C.3         1 CCT      -0.0292
     26 O26        11.5237   35.3078   77.1010 O.2         1 CCT      -0.1463
     27 O27        10.7671   36.3573   79.2097 O.2         1 CCT      -0.1463
     28 H1          2.1732   31.0813   78.0565 H           1 CCT       0.0708
     29 H2          5.0495   29.3397   75.4929 H           1 CCT       0.0708
     30 H3          6.7422   30.6812   76.4790 H           1 CCT       0.0633
     31 H4          3.8605   32.4525   79.0205 H           1 CCT       0.0633
     32 H5          8.1735   32.3634   77.1335 H           1 CCT       0.0467
     33 H6         10.2990   33.3340   77.8158 H           1 CCT       0.2106
     34 H7          7.5860   36.2570   78.6100 H           1 CCT       0.0619
     35 H8          5.7750   37.4078   77.6205 H           1 CCT       0.0560
     36 H9          6.0878   38.5694   75.5239 H           1 CCT       0.0599
     37 H10         8.2249   38.5640   74.4387 H           1 CCT       0.0557
     38 H11        11.3543   37.0647   75.5730 H           1 CCT       0.0391
     39 H12        10.7170   38.5261   74.9613 H           1 CCT       0.0391
     40 H13        10.3840   36.9950   74.1267 H           1 CCT       0.0391
@<TRIPOS>BOND
     1     1     2  ar
     2     6     1  ar
     3     3     2  ar
     4     2    12   1
     5     4     3  ar
     6     5     4  ar
     7     5     6  ar
     8    10     5   1
     9     8     7   2
    10     7    11   1
    11     7    14   1
    12     9     8   1
    13     8    17   1
    14     9    10   2
    15    10    11   1
    16    12    13   3
    17    14    15  ar
    18    14    16  ar
    19    17    18  am
    20    18    20   1
    21    18    26   2
    22    18    27   2
    23    20    19  ar
    24    19    24  ar
    25    19    25   1
    26    20    21  ar
    27    21    22  ar
    28    22    23  ar
    29    23    24  ar
    30     1    28   1
    31     3    29   1
    32     4    30   1
    33     6    31   1
    34     9    32   1
    35    17    33   1
    36    21    34   1
    37    22    35   1
    38    23    36   1
    39    24    37   1
    40    25    38   1
    41    25    39   1
    42    25    40   1
@<TRIPOS>SUBSTRUCTURE
     1  CCT      1

