@<TRIPOS>MOLECULE
2d3u_ligand_009
    40    42
SMALL
GAST_HUCK
****
This file was generated by PARSER (from files_GN.cpp)

@<TRIPOS>ATOM
      1 C1         10.5690   35.4240   79.8389 C.ar        1 CCT      -0.0292
      2 C2          9.6516   35.6914   80.8774 C.ar        1 CCT       0.0919
      3 C3          8.2995   35.3327   80.7078 C.ar        1 CCT      -0.0292
      4 C4          7.8749   34.7041   79.5221 C.ar        1 CCT      -0.0447
      5 C5          8.7875   34.4062   78.4805 C.ar        1 CCT      -0.0014
      6 C6         10.1407   34.7819   78.6591 C.ar        1 CCT      -0.0447
      7 C7          7.0197   32.8483   75.2494 C.2         1 CCT       0.0659
      8 C8          8.3653   32.4461   75.2956 C.2         1 CCT       0.0654
      9 C9          9.0820   32.9440   76.4049 C.2         1 CCT      -0.0309
     10 C10         8.3508   33.7534   77.2921 C.2         1 CCT       0.0389
     11 S11         6.7615   33.8378   76.6311 S.3         1 CCT      -0.0497
     12 C12        10.0470   36.2384   81.9947 C.1         1 CCT       0.0956
     13 N13        10.3919   36.7068   82.9864 N.1         1 CCT      -0.3326
     14 C14         6.0174   32.5192   74.3167 C.2         1 CCT       0.0483
     15 O15         6.1832   31.5399   73.4018 O.co2       1 CCT      -0.5727
     16 O16         4.8018   33.1086   74.3686 O.co2       1 CCT      -0.5727
     17 N17         8.9229   31.7218   74.2938 N.am        1 CCT      -0.1970
     18 S18         9.6703   30.2316   74.5261 S.o2        1 CCT       0.0842
     19 C19        12.3174   30.0548   73.5316 C.ar        1 CCT      -0.0191
     20 C20        10.9074   29.9777   73.3104 C.ar        1 CCT       0.1144
     21 C21        10.4330   29.6959   72.0046 C.ar        1 CCT      -0.0414
     22 C22        11.3194   29.4446   70.9425 C.ar        1 CCT      -0.0669
     23 C23        12.6997   29.4463   71.1773 C.ar        1 CCT      -0.0685
     24 C24        13.1902   29.7453   72.4587 C.ar        1 CCT      -0.0587
     25 C25        12.9711   30.4761   74.7995 C.3         1 CCT      -0.0292
     26 O26         8.5099   29.1749   74.2546 O.2         1 CCT      -0.1463
     27 O27        10.0660   29.9307   76.0387 O.2         1 CCT      -0.1463
     28 H1         11.5557   35.6840   79.9315 H           1 CCT       0.0708
     29 H2          7.6112   35.5141   81.4455 H           1 CCT       0.0708
     30 H3          6.8888   34.4450   79.4442 H           1 CCT       0.0633
     31 H4         10.8310   34.6080   77.9251 H           1 CCT       0.0633
     32 H5         10.0748   32.7351   76.5442 H           1 CCT       0.0467
     33 H6          8.5362   31.8513   73.4130 H           1 CCT       0.2106
     34 H7          9.4294   29.6801   71.8004 H           1 CCT       0.0619
     35 H8         10.9578   29.2601   70.0032 H           1 CCT       0.0560
     36 H9         13.3480   29.2475   70.4099 H           1 CCT       0.0599
     37 H10        14.2050   29.7629   72.5934 H           1 CCT       0.0557
     38 H11        12.2768   30.8646   75.5426 H           1 CCT       0.0391
     39 H12        13.6931   31.2688   74.5926 H           1 CCT       0.0391
     40 H13        13.5061   29.6301   75.2325 H           1 CCT       0.0391
@<TRIPOS>BOND
     1     1     2  ar
     2     6     1  ar
     3     3     2  ar
     4     2    12   1
     5     4     3  ar
     6     5     4  ar
     7     5     6  ar
     8    10     5   1
     9     8     7   2
    10     7    11   1
    11     7    14   1
    12     9     8   1
    13     8    17   1
    14     9    10   2
    15    10    11   1
    16    12    13   3
    17    14    15  ar
    18    14    16  ar
    19    17    18  am
    20    18    20   1
    21    18    26   2
    22    18    27   2
    23    20    19  ar
    24    19    24  ar
    25    19    25   1
    26    20    21  ar
    27    21    22  ar
    28    22    23  ar
    29    23    24  ar
    30     1    28   1
    31     3    29   1
    32     4    30   1
    33     6    31   1
    34     9    32   1
    35    17    33   1
    36    21    34   1
    37    22    35   1
    38    23    36   1
    39    24    37   1
    40    25    38   1
    41    25    39   1
    42    25    40   1
@<TRIPOS>SUBSTRUCTURE
     1  CCT      1

