@<TRIPOS>MOLECULE
2d3u_ligand_006
    40    42
SMALL
GAST_HUCK
****
This file was generated by PARSER (from files_GN.cpp)

@<TRIPOS>ATOM
      1 C1          2.2679   36.0646   84.5870 C.ar        1 CCT      -0.0292
      2 C2          2.4249   34.8131   85.2196 C.ar        1 CCT       0.0919
      3 C3          3.0083   33.7545   84.4963 C.ar        1 CCT      -0.0292
      4 C4          3.4295   33.9441   83.1702 C.ar        1 CCT      -0.0447
      5 C5          3.2810   35.1970   82.5215 C.ar        1 CCT      -0.0014
      6 C6          2.6792   36.2487   83.2546 C.ar        1 CCT      -0.0447
      7 C7          4.5268   35.1171   78.7276 C.2         1 CCT       0.0659
      8 C8          4.0429   36.3962   79.0113 C.2         1 CCT       0.0654
      9 C9          3.5840   36.5365   80.3441 C.2         1 CCT      -0.0309
     10 C10         3.6965   35.3940   81.1621 C.2         1 CCT       0.0389
     11 S11         4.4056   34.1855   80.1521 S.3         1 CCT      -0.0497
     12 C12         2.0293   34.6443   86.4529 C.1         1 CCT       0.0956
     13 N13         1.6806   34.4912   87.5347 N.1         1 CCT      -0.3326
     14 C14         5.1269   34.6582   77.5520 C.2         1 CCT       0.0483
     15 O15         4.5172   33.7079   76.7929 O.co2       1 CCT      -0.5727
     16 O16         6.3619   35.1182   77.1989 O.co2       1 CCT      -0.5727
     17 N17         3.9931   37.3562   78.0403 N.am        1 CCT      -0.1970
     18 S18         4.2025   38.9972   78.3469 S.o2        1 CCT       0.0842
     19 C19         2.9765   41.3499   79.2404 C.ar        1 CCT      -0.0191
     20 C20         2.8426   39.9931   78.8277 C.ar        1 CCT       0.1144
     21 C21         1.5586   39.4071   78.7841 C.ar        1 CCT      -0.0414
     22 C22         0.4261   40.1335   79.1962 C.ar        1 CCT      -0.0669
     23 C23         0.5567   41.4479   79.6624 C.ar        1 CCT      -0.0685
     24 C24         1.8244   42.0415   79.6793 C.ar        1 CCT      -0.0587
     25 C25         4.2532   42.1099   79.2628 C.3         1 CCT      -0.0292
     26 O26         4.6999   39.5631   76.9451 O.2         1 CCT      -0.1463
     27 O27         5.4768   39.1330   79.2880 O.2         1 CCT      -0.1463
     28 H1          1.8555   36.8637   85.1006 H           1 CCT       0.0708
     29 H2          3.1314   32.8344   84.9360 H           1 CCT       0.0708
     30 H3          3.8345   33.1487   82.6892 H           1 CCT       0.0633
     31 H4          2.5393   37.1688   82.8435 H           1 CCT       0.0633
     32 H5          3.1759   37.4058   80.6643 H           1 CCT       0.0467
     33 H6          4.1031   37.0724   77.1269 H           1 CCT       0.2106
     34 H7          1.4273   38.4488   78.4522 H           1 CCT       0.0619
     35 H8         -0.5026   39.6924   79.1667 H           1 CCT       0.0560
     36 H9         -0.2502   41.9638   79.9969 H           1 CCT       0.0599
     37 H10         1.9022   43.0098   80.0310 H           1 CCT       0.0557
     38 H11         5.0062   41.6763   78.5972 H           1 CCT       0.0391
     39 H12         4.6457   42.1337   80.2764 H           1 CCT       0.0391
     40 H13         4.1117   43.1464   78.9206 H           1 CCT       0.0391
@<TRIPOS>BOND
     1     1     2  ar
     2     6     1  ar
     3     3     2  ar
     4     2    12   1
     5     4     3  ar
     6     5     4  ar
     7     5     6  ar
     8    10     5   1
     9     8     7   2
    10     7    11   1
    11     7    14   1
    12     9     8   1
    13     8    17   1
    14     9    10   2
    15    10    11   1
    16    12    13   3
    17    14    15  ar
    18    14    16  ar
    19    17    18  am
    20    18    20   1
    21    18    26   2
    22    18    27   2
    23    20    19  ar
    24    19    24  ar
    25    19    25   1
    26    20    21  ar
    27    21    22  ar
    28    22    23  ar
    29    23    24  ar
    30     1    28   1
    31     3    29   1
    32     4    30   1
    33     6    31   1
    34     9    32   1
    35    17    33   1
    36    21    34   1
    37    22    35   1
    38    23    36   1
    39    24    37   1
    40    25    38   1
    41    25    39   1
    42    25    40   1
@<TRIPOS>SUBSTRUCTURE
     1  CCT      1

