@<TRIPOS>MOLECULE
2d3u_ligand_000
    40    42
SMALL
GAST_HUCK
****
This file was generated by PARSER (from files_GN.cpp)

@<TRIPOS>ATOM
      1 C1          3.7135   35.8225   81.6538 C.ar        1 CCT      -0.0292
      2 C2          4.1181   34.8093   82.5487 C.ar        1 CCT       0.0919
      3 C3          4.7971   33.6800   82.0487 C.ar        1 CCT      -0.0292
      4 C4          5.0815   33.5755   80.6752 C.ar        1 CCT      -0.0447
      5 C5          4.7119   34.5978   79.7672 C.ar        1 CCT      -0.0014
      6 C6          4.0110   35.7163   80.2817 C.ar        1 CCT      -0.0447
      7 C7          5.7734   33.7735   76.0078 C.2         1 CCT       0.0659
      8 C8          5.6697   35.1557   76.1837 C.2         1 CCT       0.0654
      9 C9          5.2677   35.5506   77.4801 C.2         1 CCT      -0.0309
     10 C10         5.0664   34.5046   78.3936 C.2         1 CCT       0.0389
     11 S11         5.3798   33.0529   77.5142 S.3         1 CCT      -0.0497
     12 C12         3.8754   34.9146   83.8262 C.1         1 CCT       0.0956
     13 N13         3.6683   35.0065   84.9499 N.1         1 CCT      -0.3326
     14 C14         6.1703   33.0839   74.8591 C.2         1 CCT       0.0483
     15 O15         7.4786   32.8291   74.6664 O.co2       1 CCT      -0.5727
     16 O16         5.2586   32.3678   74.1679 O.co2       1 CCT      -0.5727
     17 N17         5.8427   36.0332   75.1735 N.am        1 CCT      -0.1970
     18 S18         7.1644   37.0718   75.0519 S.o2        1 CCT       0.0842
     19 C19         9.9314   37.4597   75.0651 C.ar        1 CCT      -0.0191
     20 C20         8.8084   36.7086   75.5386 C.ar        1 CCT       0.1144
     21 C21         9.0284   35.6427   76.4410 C.ar        1 CCT      -0.0414
     22 C22        10.3236   35.2788   76.8406 C.ar        1 CCT      -0.0669
     23 C23        11.4298   35.9664   76.3279 C.ar        1 CCT      -0.0685
     24 C24        11.2346   37.0433   75.4464 C.ar        1 CCT      -0.0587
     25 C25         9.8594   38.6518   74.1730 C.3         1 CCT      -0.0292
     26 O26         6.7488   38.4659   75.6856 O.2         1 CCT      -0.1463
     27 O27         7.2212   37.2969   73.4777 O.2         1 CCT      -0.1463
     28 H1          3.2075   36.6477   81.9935 H           1 CCT       0.0708
     29 H2          5.1016   32.9280   82.6777 H           1 CCT       0.0708
     30 H3          5.5934   32.7504   80.3555 H           1 CCT       0.0633
     31 H4          3.6966   36.4682   79.6620 H           1 CCT       0.0633
     32 H5          5.1563   36.5367   77.7237 H           1 CCT       0.0467
     33 H6          5.0280   36.3557   74.7567 H           1 CCT       0.2106
     34 H7          8.2540   35.1115   76.8267 H           1 CCT       0.0619
     35 H8         10.4613   34.5068   77.4982 H           1 CCT       0.0560
     36 H9         12.3737   35.6981   76.6035 H           1 CCT       0.0599
     37 H10        12.0582   37.5398   75.0984 H           1 CCT       0.0557
     38 H11         8.8618   39.0689   74.0511 H           1 CCT       0.0391
     39 H12        10.2317   38.3676   73.1881 H           1 CCT       0.0391
     40 H13        10.4817   39.4531   74.5731 H           1 CCT       0.0391
@<TRIPOS>BOND
     1     1     2  ar
     2     6     1  ar
     3     3     2  ar
     4     2    12   1
     5     4     3  ar
     6     5     4  ar
     7     5     6  ar
     8    10     5   1
     9     8     7   2
    10     7    11   1
    11     7    14   1
    12     9     8   1
    13     8    17   1
    14     9    10   2
    15    10    11   1
    16    12    13   3
    17    14    15  ar
    18    14    16  ar
    19    17    18  am
    20    18    20   1
    21    18    26   2
    22    18    27   2
    23    20    19  ar
    24    19    24  ar
    25    19    25   1
    26    20    21  ar
    27    21    22  ar
    28    22    23  ar
    29    23    24  ar
    30     1    28   1
    31     3    29   1
    32     4    30   1
    33     6    31   1
    34     9    32   1
    35    17    33   1
    36    21    34   1
    37    22    35   1
    38    23    36   1
    39    24    37   1
    40    25    38   1
    41    25    39   1
    42    25    40   1
@<TRIPOS>SUBSTRUCTURE
     1  CCT      1

