@<TRIPOS>MOLECULE
2d3u_ligand_002
    40    42
SMALL
GAST_HUCK
****
This file was generated by PARSER (from files_GN.cpp)

@<TRIPOS>ATOM
      1 C1          5.0437   30.0342   74.7711 C.ar        1 CCT      -0.0292
      2 C2          5.0480   28.9948   75.7178 C.ar        1 CCT       0.0919
      3 C3          5.2173   29.2926   77.0811 C.ar        1 CCT      -0.0292
      4 C4          5.3792   30.6291   77.4942 C.ar        1 CCT      -0.0447
      5 C5          5.3682   31.7009   76.5627 C.ar        1 CCT      -0.0014
      6 C6          5.2099   31.3685   75.1910 C.ar        1 CCT      -0.0447
      7 C7          5.7307   35.2925   78.3308 C.2         1 CCT       0.0659
      8 C8          5.6266   35.4483   76.9355 C.2         1 CCT       0.0654
      9 C9          5.4822   34.2363   76.2229 C.2         1 CCT      -0.0309
     10 C10         5.4991   33.0611   76.9953 C.2         1 CCT       0.0389
     11 S11         5.6659   33.5993   78.6260 S.3         1 CCT      -0.0497
     12 C12         4.8751   27.7564   75.3336 C.1         1 CCT       0.0956
     13 N13         4.7191   26.6673   74.9969 N.1         1 CCT      -0.3326
     14 C14         5.8930   36.2800   79.3155 C.2         1 CCT       0.0483
     15 O15         6.2094   35.9541   80.5907 O.co2       1 CCT      -0.5727
     16 O16         5.7718   37.5924   79.0142 O.co2       1 CCT      -0.5727
     17 N17         5.6427   36.6388   76.3111 N.am        1 CCT      -0.1970
     18 S18         7.0015   37.2635   75.5235 S.o2        1 CCT       0.0842
     19 C19         9.7714   37.5234   75.2126 C.ar        1 CCT      -0.0191
     20 C20         8.6760   36.8648   75.8538 C.ar        1 CCT       0.1144
     21 C21         8.9677   35.8112   76.7622 C.ar        1 CCT      -0.0414
     22 C22        10.2792   35.3974   77.0227 C.ar        1 CCT      -0.0669
     23 C23        11.3444   36.0393   76.3702 C.ar        1 CCT      -0.0685
     24 C24        11.0820   37.0973   75.4943 C.ar        1 CCT      -0.0587
     25 C25         9.6570   38.6522   74.2402 C.3         1 CCT      -0.0292
     26 O26         6.8430   38.8227   75.7879 O.2         1 CCT      -0.1463
     27 O27         6.7393   37.0510   73.9696 O.2         1 CCT      -0.1463
     28 H1          4.9101   29.8444   73.7770 H           1 CCT       0.0708
     29 H2          5.2144   28.5527   77.7882 H           1 CCT       0.0708
     30 H3          5.4956   30.8020   78.4920 H           1 CCT       0.0633
     31 H4          5.2153   32.0903   74.4746 H           1 CCT       0.0633
     32 H5          5.3781   34.2374   75.2071 H           1 CCT       0.0467
     33 H6          4.7916   36.9892   76.0159 H           1 CCT       0.2106
     34 H7          8.2310   35.3223   77.2474 H           1 CCT       0.0619
     35 H8         10.4703   34.6315   77.6748 H           1 CCT       0.0560
     36 H9         12.3056   35.7402   76.5488 H           1 CCT       0.0599
     37 H10        11.8813   37.5408   75.0460 H           1 CCT       0.0557
     38 H11         8.6449   39.0066   74.0446 H           1 CCT       0.0391
     39 H12        10.0768   38.3367   73.2851 H           1 CCT       0.0391
     40 H13        10.2277   39.5090   74.5986 H           1 CCT       0.0391
@<TRIPOS>BOND
     1     1     2  ar
     2     6     1  ar
     3     3     2  ar
     4     2    12   1
     5     4     3  ar
     6     5     4  ar
     7     5     6  ar
     8    10     5   1
     9     8     7   2
    10     7    11   1
    11     7    14   1
    12     9     8   1
    13     8    17   1
    14     9    10   2
    15    10    11   1
    16    12    13   3
    17    14    15  ar
    18    14    16  ar
    19    17    18  am
    20    18    20   1
    21    18    26   2
    22    18    27   2
    23    20    19  ar
    24    19    24  ar
    25    19    25   1
    26    20    21  ar
    27    21    22  ar
    28    22    23  ar
    29    23    24  ar
    30     1    28   1
    31     3    29   1
    32     4    30   1
    33     6    31   1
    34     9    32   1
    35    17    33   1
    36    21    34   1
    37    22    35   1
    38    23    36   1
    39    24    37   1
    40    25    38   1
    41    25    39   1
    42    25    40   1
@<TRIPOS>SUBSTRUCTURE
     1  CCT      1

