@<TRIPOS>MOLECULE
2d3u_ligand_018
    40    42
SMALL
GAST_HUCK
****
This file was generated by PARSER (from files_GN.cpp)

@<TRIPOS>ATOM
      1 C1          5.9952   33.6103   83.3229 C.ar        1 CCT      -0.0292
      2 C2          6.8153   32.4722   83.1635 C.ar        1 CCT       0.0919
      3 C3          7.2607   32.1151   81.8721 C.ar        1 CCT      -0.0292
      4 C4          6.8847   32.8872   80.7582 C.ar        1 CCT      -0.0447
      5 C5          6.0581   34.0310   80.8952 C.ar        1 CCT      -0.0014
      6 C6          5.6247   34.3741   82.1990 C.ar        1 CCT      -0.0447
      7 C7          5.5098   36.0070   77.4567 C.2         1 CCT       0.0659
      8 C8          4.5960   36.4656   78.4213 C.2         1 CCT       0.0654
      9 C9          4.6958   35.8012   79.6609 C.2         1 CCT      -0.0309
     10 C10         5.6995   34.8174   79.7646 C.2         1 CCT       0.0389
     11 S11         6.4365   34.7704   78.2060 S.3         1 CCT      -0.0497
     12 C12         7.1519   31.7600   84.1959 C.1         1 CCT       0.0956
     13 N13         7.4515   31.1299   85.1114 N.1         1 CCT      -0.3326
     14 C14         5.6827   36.3965   76.1225 C.2         1 CCT       0.0483
     15 O15         6.4127   37.4979   75.8467 O.co2       1 CCT      -0.5727
     16 O16         5.5644   35.4681   75.1384 O.co2       1 CCT      -0.5727
     17 N17         3.6270   37.3920   78.2284 N.am        1 CCT      -0.1970
     18 S18         4.0119   39.0330   78.1718 S.o2        1 CCT       0.0842
     19 C19         2.9651   41.3966   79.2529 C.ar        1 CCT      -0.0191
     20 C20         2.7373   40.0714   78.7780 C.ar        1 CCT       0.1144
     21 C21         1.4284   39.5415   78.8201 C.ar        1 CCT      -0.0414
     22 C22         0.3687   40.2709   79.3816 C.ar        1 CCT      -0.0669
     23 C23         0.6000   41.5519   79.8991 C.ar        1 CCT      -0.0685
     24 C24         1.8867   42.1062   79.8330 C.ar        1 CCT      -0.0587
     25 C25         4.2800   42.1032   79.2009 C.3         1 CCT      -0.0292
     26 O26         4.3317   39.5127   76.6896 O.2         1 CCT      -0.1463
     27 O27         5.2861   39.2218   79.1065 O.2         1 CCT      -0.1463
     28 H1          5.6637   33.8928   84.2474 H           1 CCT       0.0708
     29 H2          7.8540   31.2942   81.7333 H           1 CCT       0.0708
     30 H3          7.2273   32.5918   79.8407 H           1 CCT       0.0633
     31 H4          5.0468   35.1997   82.3638 H           1 CCT       0.0633
     32 H5          4.0747   36.0320   80.4327 H           1 CCT       0.0467
     33 H6          2.7811   37.1932   78.6600 H           1 CCT       0.2106
     34 H7          1.2258   38.6094   78.4565 H           1 CCT       0.0619
     35 H8         -0.5675   39.8624   79.4276 H           1 CCT       0.0560
     36 H9         -0.1675   42.0806   80.3202 H           1 CCT       0.0599
     37 H10         2.0278   43.0503   80.2105 H           1 CCT       0.0557
     38 H11         4.9851   41.6652   78.4947 H           1 CCT       0.0391
     39 H12         4.7296   42.0950   80.1968 H           1 CCT       0.0391
     40 H13         4.1341   43.1435   78.8934 H           1 CCT       0.0391
@<TRIPOS>BOND
     1     1     2  ar
     2     6     1  ar
     3     3     2  ar
     4     2    12   1
     5     4     3  ar
     6     5     4  ar
     7     5     6  ar
     8    10     5   1
     9     8     7   2
    10     7    11   1
    11     7    14   1
    12     9     8   1
    13     8    17   1
    14     9    10   2
    15    10    11   1
    16    12    13   3
    17    14    15  ar
    18    14    16  ar
    19    17    18  am
    20    18    20   1
    21    18    26   2
    22    18    27   2
    23    20    19  ar
    24    19    24  ar
    25    19    25   1
    26    20    21  ar
    27    21    22  ar
    28    22    23  ar
    29    23    24  ar
    30     1    28   1
    31     3    29   1
    32     4    30   1
    33     6    31   1
    34     9    32   1
    35    17    33   1
    36    21    34   1
    37    22    35   1
    38    23    36   1
    39    24    37   1
    40    25    38   1
    41    25    39   1
    42    25    40   1
@<TRIPOS>SUBSTRUCTURE
     1  CCT      1

