@<TRIPOS>MOLECULE
2d3u_ligand_010
    40    42
SMALL
GAST_HUCK
****
This file was generated by PARSER (from files_GN.cpp)

@<TRIPOS>ATOM
      1 C1          8.8073   32.5218   76.4948 C.ar        1 CCT      -0.0292
      2 C2          8.5430   32.4325   75.1132 C.ar        1 CCT       0.0919
      3 C3          7.4798   33.1820   74.5643 C.ar        1 CCT      -0.0292
      4 C4          6.6874   33.9994   75.3930 C.ar        1 CCT      -0.0447
      5 C5          6.9305   34.0907   76.7868 C.ar        1 CCT      -0.0014
      6 C6          8.0085   33.3390   77.3180 C.ar        1 CCT      -0.0447
      7 C7          4.6935   35.8260   79.6080 C.2         1 CCT       0.0659
      8 C8          4.4636   36.4496   78.3726 C.2         1 CCT       0.0654
      9 C9          5.2316   35.9281   77.3085 C.2         1 CCT      -0.0309
     10 C10         6.0940   34.8686   77.6369 C.2         1 CCT       0.0389
     11 S11         5.8781   34.6113   79.3295 S.3         1 CCT      -0.0497
     12 C12         9.2746   31.6672   74.3560 C.1         1 CCT       0.0956
     13 N13         9.9275   30.9940   73.6938 N.1         1 CCT      -0.3326
     14 C14         4.1148   36.0938   80.8650 C.2         1 CCT       0.0483
     15 O15         3.2343   37.0994   81.0443 O.co2       1 CCT      -0.5727
     16 O16         4.4732   35.3729   81.9538 O.co2       1 CCT      -0.5727
     17 N17         3.5197   37.4027   78.1928 N.am        1 CCT      -0.1970
     18 S18         3.9343   39.0396   78.1618 S.o2        1 CCT       0.0842
     19 C19         2.9297   41.3937   79.3240 C.ar        1 CCT      -0.0191
     20 C20         2.6862   40.0830   78.8166 C.ar        1 CCT       0.1144
     21 C21         1.3697   39.5637   78.8724 C.ar        1 CCT      -0.0414
     22 C22         0.3242   40.2900   79.4679 C.ar        1 CCT      -0.0669
     23 C23         0.5736   41.5517   80.0195 C.ar        1 CCT      -0.0685
     24 C24         1.8648   42.0960   79.9421 C.ar        1 CCT      -0.0587
     25 C25         4.2370   42.1021   79.2618 C.3         1 CCT      -0.0292
     26 O26         4.2659   39.5226   76.6815 O.2         1 CCT      -0.1463
     27 O27         5.2290   39.1982   79.0738 O.2         1 CCT      -0.1463
     28 H1          9.5770   31.9933   76.9173 H           1 CCT       0.0708
     29 H2          7.2698   33.1335   73.5624 H           1 CCT       0.0708
     30 H3          5.9095   34.5096   74.9616 H           1 CCT       0.0633
     31 H4          8.2349   33.3796   78.3127 H           1 CCT       0.0633
     32 H5          5.1439   36.2934   76.3593 H           1 CCT       0.0467
     33 H6          2.6447   37.1987   78.5661 H           1 CCT       0.2106
     34 H7          1.1506   38.6431   78.4861 H           1 CCT       0.0619
     35 H8         -0.6166   39.8889   79.5085 H           1 CCT       0.0560
     36 H9         -0.1826   42.0725   80.4631 H           1 CCT       0.0599
     37 H10         2.0182   43.0284   80.3404 H           1 CCT       0.0557
     38 H11         4.9474   41.6538   78.5664 H           1 CCT       0.0391
     39 H12         4.6848   42.1188   80.2578 H           1 CCT       0.0391
     40 H13         4.0851   43.1311   78.9270 H           1 CCT       0.0391
@<TRIPOS>BOND
     1     1     2  ar
     2     6     1  ar
     3     3     2  ar
     4     2    12   1
     5     4     3  ar
     6     5     4  ar
     7     5     6  ar
     8    10     5   1
     9     8     7   2
    10     7    11   1
    11     7    14   1
    12     9     8   1
    13     8    17   1
    14     9    10   2
    15    10    11   1
    16    12    13   3
    17    14    15  ar
    18    14    16  ar
    19    17    18  am
    20    18    20   1
    21    18    26   2
    22    18    27   2
    23    20    19  ar
    24    19    24  ar
    25    19    25   1
    26    20    21  ar
    27    21    22  ar
    28    22    23  ar
    29    23    24  ar
    30     1    28   1
    31     3    29   1
    32     4    30   1
    33     6    31   1
    34     9    32   1
    35    17    33   1
    36    21    34   1
    37    22    35   1
    38    23    36   1
    39    24    37   1
    40    25    38   1
    41    25    39   1
    42    25    40   1
@<TRIPOS>SUBSTRUCTURE
     1  CCT      1

