@<TRIPOS>MOLECULE
2d3u_ligand_020
    40    42
SMALL
GAST_HUCK
****
This file was generated by PARSER (from files_GN.cpp)

@<TRIPOS>ATOM
      1 C1          6.8232   35.9707   80.0587 C.ar        1 CCT      -0.0292
      2 C2          7.3230   34.9664   80.9139 C.ar        1 CCT       0.0919
      3 C3          6.4234   34.2238   81.7058 C.ar        1 CCT      -0.0292
      4 C4          5.0444   34.4961   81.6636 C.ar        1 CCT      -0.0447
      5 C5          4.5346   35.5343   80.8452 C.ar        1 CCT      -0.0014
      6 C6          5.4459   36.2511   80.0317 C.ar        1 CCT      -0.0447
      7 C7          0.5634   35.9487   80.8046 C.2         1 CCT       0.0659
      8 C8          1.1854   37.1904   80.5772 C.2         1 CCT       0.0654
      9 C9          2.5933   37.1320   80.6758 C.2         1 CCT      -0.0309
     10 C10         3.1561   35.8608   80.8465 C.2         1 CCT       0.0389
     11 S11         1.8221   34.7877   81.0034 S.3         1 CCT      -0.0497
     12 C12         8.6034   34.7392   80.9797 C.1         1 CCT       0.0956
     13 N13         9.7309   34.5412   81.0457 N.1         1 CCT      -0.3326
     14 C14        -0.8105   35.6249   80.8437 C.2         1 CCT       0.0483
     15 O15        -1.7721   36.5708   80.7992 O.co2       1 CCT      -0.5727
     16 O16        -1.2171   34.3439   81.0087 O.co2       1 CCT      -0.5727
     17 N17         0.4781   38.3029   80.2261 N.am        1 CCT      -0.1970
     18 S18         1.0910   39.7655   79.6422 S.o2        1 CCT       0.0842
     19 C19         3.5221   40.7939   78.6693 C.ar        1 CCT      -0.0191
     20 C20         2.5561   39.7452   78.6748 C.ar        1 CCT       0.1144
     21 C21         2.8235   38.5588   77.9453 C.ar        1 CCT      -0.0414
     22 C22         4.0774   38.3443   77.3577 C.ar        1 CCT      -0.0669
     23 C23         5.0683   39.3300   77.4422 C.ar        1 CCT      -0.0685
     24 C24         4.7836   40.5549   78.0671 C.ar        1 CCT      -0.0587
     25 C25         3.3095   42.1279   79.2868 C.3         1 CCT      -0.0292
     26 O26         1.1444   40.7606   80.8833 O.2         1 CCT      -0.1463
     27 O27        -0.0448   40.3077   78.6709 O.2         1 CCT      -0.1463
     28 H1          7.4521   36.5160   79.4631 H           1 CCT       0.0708
     29 H2          6.7614   33.4869   82.3316 H           1 CCT       0.0708
     30 H3          4.4160   33.9548   82.2643 H           1 CCT       0.0633
     31 H4          5.1149   36.9921   79.4104 H           1 CCT       0.0633
     32 H5          3.1811   37.9611   80.6053 H           1 CCT       0.0467
     33 H6         -0.4878   38.2459   80.2836 H           1 CCT       0.2106
     34 H7          2.1216   37.8173   77.8871 H           1 CCT       0.0619
     35 H8          4.2849   37.4536   76.8988 H           1 CCT       0.0560
     36 H9          5.9919   39.1613   77.0395 H           1 CCT       0.0599
     37 H10         5.5177   41.2688   78.0951 H           1 CCT       0.0557
     38 H11         2.2545   42.4026   79.3123 H           1 CCT       0.0391
     39 H12         3.8182   42.9115   78.7217 H           1 CCT       0.0391
     40 H13         3.7075   42.1225   80.3012 H           1 CCT       0.0391
@<TRIPOS>BOND
     1     1     2  ar
     2     6     1  ar
     3     3     2  ar
     4     2    12   1
     5     4     3  ar
     6     5     4  ar
     7     5     6  ar
     8    10     5   1
     9     8     7   2
    10     7    11   1
    11     7    14   1
    12     9     8   1
    13     8    17   1
    14     9    10   2
    15    10    11   1
    16    12    13   3
    17    14    15  ar
    18    14    16  ar
    19    17    18  am
    20    18    20   1
    21    18    26   2
    22    18    27   2
    23    20    19  ar
    24    19    24  ar
    25    19    25   1
    26    20    21  ar
    27    21    22  ar
    28    22    23  ar
    29    23    24  ar
    30     1    28   1
    31     3    29   1
    32     4    30   1
    33     6    31   1
    34     9    32   1
    35    17    33   1
    36    21    34   1
    37    22    35   1
    38    23    36   1
    39    24    37   1
    40    25    38   1
    41    25    39   1
    42    25    40   1
@<TRIPOS>SUBSTRUCTURE
     1  CCT      1

