@<TRIPOS>MOLECULE
2fvd_ligand_027
    51    53
SMALL
GAST_HUCK
****
This file was generated by PARSER (from files_GN.cpp)

@<TRIPOS>ATOM
      1 N1          7.6293   19.2890   12.0046 N.am        1 LIA      -0.2385
      2 C2          8.4801   20.2986   12.5786 C.3         1 LIA       0.0314
      3 C3          8.1205   21.7282   12.0938 C.3         1 LIA      -0.0122
      4 C4          7.9860   21.8016   10.5469 C.3         1 LIA       0.0456
      5 C5          7.0009   20.6975   10.0663 C.3         1 LIA      -0.0122
      6 C6          7.4025   19.2956   10.5801 C.3         1 LIA       0.0314
      7 N7          7.5394   23.1099   10.1566 N.pl3       1 LIA      -0.2866
      8 C8          7.3555   23.5339    8.8931 C.ar        1 LIA       0.1789
      9 N9          6.8015   24.7614    8.7017 N.ar        1 LIA      -0.2656
     10 C10         6.5383   25.2409    7.4648 C.ar        1 LIA       0.0186
     11 C11         6.8243   24.4620    6.3128 C.ar        1 LIA       0.0852
     12 C12         7.4050   23.1947    6.5305 C.ar        1 LIA       0.1302
     13 N13         7.6497   22.7722    7.8003 N.ar        1 LIA      -0.2356
     14 C14         6.5120   24.9474    5.0528 C.2         1 LIA       0.1492
     15 O15         7.4390   25.3991    4.3831 O.2         1 LIA      -0.3856
     16 C16         5.2665   24.7658    4.4608 C.ar        1 LIA       0.0920
     17 C17         4.5149   23.5642    4.6477 C.ar        1 LIA       0.1766
     18 C18         3.3003   23.3610    3.9651 C.ar        1 LIA       0.1591
     19 C19         2.8179   24.3383    3.0743 C.ar        1 LIA      -0.0338
     20 C20         3.5355   25.5387    2.8924 C.ar        1 LIA      -0.0322
     21 C21         4.7350   25.7592    3.5878 C.ar        1 LIA       0.1052
     22 O22         5.3790   26.9554    3.3800 O.3         1 LIA      -0.3192
     23 C23         5.1600   27.8993    4.4442 C.3         1 LIA       0.0603
     24 F24         4.9481   22.5907    5.4118 F           1 LIA      -0.1811
     25 F25         2.6178   22.2573    4.1241 F           1 LIA      -0.1924
     26 N26         7.6691   22.3362    5.5313 N.pl3       1 LIA      -0.3135
     27 S27         7.3451   17.8527   12.8526 S.o2        1 LIA       0.0385
     28 C28         5.5934   17.4813   13.0154 C.3         1 LIA       0.0734
     29 O29         7.9964   17.8856   14.3050 O.2         1 LIA      -0.1556
     30 O30         8.0690   16.6261   12.1307 O.2         1 LIA      -0.1556
     31 H1          9.5162   20.0778   12.3109 H           1 LIA       0.0479
     32 H2          8.4089   20.2993   13.6699 H           1 LIA       0.0479
     33 H3          8.8923   22.4251   12.4286 H           1 LIA       0.0304
     34 H4          7.1751   22.0323   12.5584 H           1 LIA       0.0304
     35 H5          8.9783   21.6254   10.1109 H           1 LIA       0.0563
     36 H6          6.9695   20.6627    8.9741 H           1 LIA       0.0304
     37 H7          5.9933   20.9330   10.4218 H           1 LIA       0.0304
     38 H8          6.6051   18.6015   10.3013 H           1 LIA       0.0479
     39 H9          8.3191   18.9713   10.0751 H           1 LIA       0.0479
     40 H10         7.3360   23.7469   10.8628 H           1 LIA       0.1881
     41 H11         6.0990   26.1612    7.3786 H           1 LIA       0.0904
     42 H12         1.9485   24.1857    2.5583 H           1 LIA       0.0605
     43 H13         3.1666   26.2511    2.2535 H           1 LIA       0.0512
     44 H14         5.6951   28.8185    4.1969 H           1 LIA       0.0579
     45 H15         5.5483   27.5325    5.3975 H           1 LIA       0.0579
     46 H16         4.0976   28.1321    4.5537 H           1 LIA       0.0579
     47 H17         8.0249   21.4516    5.7223 H           1 LIA       0.1831
     48 H18         7.4588   22.5783    4.6140 H           1 LIA       0.1831
     49 H19         5.4643   16.5318   13.5348 H           1 LIA       0.0482
     50 H20         5.1439   17.4156   12.0252 H           1 LIA       0.0482
     51 H21         5.1038   18.2745   13.5824 H           1 LIA       0.0482
@<TRIPOS>BOND
     1     1     2   1
     2     1     6   1
     3     1    27  am
     4     2     3   1
     5     3     4   1
     6     4     5   1
     7     4     7   1
     8     5     6   1
     9     7     8   1
    10     8     9  ar
    11     8    13  ar
    12     9    10  ar
    13    10    11  ar
    14    11    12  ar
    15    11    14   1
    16    12    13  ar
    17    12    26   1
    18    14    15   2
    19    14    16   1
    20    16    17  ar
    21    16    21  ar
    22    17    18  ar
    23    17    24   1
    24    18    19  ar
    25    18    25   1
    26    19    20  ar
    27    20    21  ar
    28    21    22   1
    29    22    23   1
    30    27    28   1
    31    27    29   2
    32    27    30   2
    33     2    31   1
    34     2    32   1
    35     3    33   1
    36     3    34   1
    37     4    35   1
    38     5    36   1
    39     5    37   1
    40     6    38   1
    41     6    39   1
    42     7    40   1
    43    10    41   1
    44    19    42   1
    45    20    43   1
    46    23    44   1
    47    23    45   1
    48    23    46   1
    49    26    47   1
    50    26    48   1
    51    28    49   1
    52    28    50   1
    53    28    51   1
@<TRIPOS>SUBSTRUCTURE
     1  LIA      2

