@<TRIPOS>MOLECULE
2fvd_ligand_003
    51    53
SMALL
GAST_HUCK
****
This file was generated by PARSER (from files_GN.cpp)

@<TRIPOS>ATOM
      1 N1          5.8813   19.8834   11.5268 N.am        1 LIA      -0.2385
      2 C2          7.1525   20.2748   12.0938 C.3         1 LIA       0.0314
      3 C3          7.5371   21.7453   11.7664 C.3         1 LIA      -0.0122
      4 C4          7.3784   22.0413   10.2483 C.3         1 LIA       0.0456
      5 C5          5.9409   21.6459    9.7991 C.3         1 LIA      -0.0122
      6 C6          5.6241   20.1731   10.1419 C.3         1 LIA       0.0314
      7 N7          7.6550   23.4201    9.9590 N.pl3       1 LIA      -0.2866
      8 C8          7.7450   23.9521    8.7155 C.ar        1 LIA       0.1789
      9 N9          7.9392   25.2886    8.5741 N.ar        1 LIA      -0.2656
     10 C10         7.9792   25.8779    7.3505 C.ar        1 LIA       0.0186
     11 C11         7.7962   25.1161    6.1753 C.ar        1 LIA       0.0852
     12 C12         7.6101   23.7240    6.3418 C.ar        1 LIA       0.1302
     13 N13         7.6009   23.1988    7.5920 N.ar        1 LIA      -0.2356
     14 C14         7.8337   25.7270    4.9286 C.2         1 LIA       0.1492
     15 O15         8.9749   25.9291    4.5343 O.2         1 LIA      -0.3856
     16 C16         6.7073   26.1133    4.1561 C.ar        1 LIA       0.0920
     17 C17         5.3825   26.1458    4.6939 C.ar        1 LIA       0.1766
     18 C18         4.2736   26.5164    3.9019 C.ar        1 LIA       0.1591
     19 C19         4.4517   26.8508    2.5515 C.ar        1 LIA      -0.0338
     20 C20         5.7360   26.8278    1.9948 C.ar        1 LIA      -0.0322
     21 C21         6.8599   26.4982    2.7851 C.ar        1 LIA       0.1052
     22 O22         8.0810   26.4816    2.1520 O.3         1 LIA      -0.3192
     23 C23         8.6471   27.7805    1.8856 C.3         1 LIA       0.0603
     24 F24         5.1237   25.8647    5.9458 F           1 LIA      -0.1811
     25 F25         3.0683   26.5623    4.4081 F           1 LIA      -0.1924
     26 N26         7.4198   22.8825    5.3108 N.pl3       1 LIA      -0.3135
     27 S27         5.0522   18.5959   12.2527 S.o2        1 LIA       0.0385
     28 C28         3.5946   17.9640   11.3940 C.3         1 LIA       0.0734
     29 O29         4.5472   19.0808   13.6800 O.2         1 LIA      -0.1556
     30 O30         6.0338   17.3596   12.4458 O.2         1 LIA      -0.1556
     31 H1          7.9268   19.6082   11.7032 H           1 LIA       0.0479
     32 H2          7.1438   20.1700   13.1820 H           1 LIA       0.0479
     33 H3          8.5741   21.9230   12.0701 H           1 LIA       0.0304
     34 H4          6.9002   22.4205   12.3471 H           1 LIA       0.0304
     35 H5          8.1092   21.4256    9.7125 H           1 LIA       0.0563
     36 H6          5.8209   21.7716    8.7226 H           1 LIA       0.0304
     37 H7          5.2111   22.2960   10.2926 H           1 LIA       0.0304
     38 H8          4.5759   20.0131    9.8843 H           1 LIA       0.0479
     39 H9          6.2277   19.5056    9.5194 H           1 LIA       0.0479
     40 H10         7.7584   24.0245   10.7112 H           1 LIA       0.1881
     41 H11         8.1203   26.8873    7.2987 H           1 LIA       0.0904
     42 H12         3.6517   27.1180    1.9707 H           1 LIA       0.0605
     43 H13         5.8526   27.0635    1.0052 H           1 LIA       0.0512
     44 H14         9.6593   27.6395    1.5063 H           1 LIA       0.0579
     45 H15         8.7059   28.3942    2.7876 H           1 LIA       0.0579
     46 H16         8.0728   28.3122    1.1239 H           1 LIA       0.0579
     47 H17         7.2797   21.9372    5.4772 H           1 LIA       0.1831
     48 H18         7.4078   23.2167    4.4000 H           1 LIA       0.1831
     49 H19         3.1609   17.1509   11.9759 H           1 LIA       0.0482
     50 H20         3.8770   17.5874   10.4102 H           1 LIA       0.0482
     51 H21         2.8557   18.7577   11.2807 H           1 LIA       0.0482
@<TRIPOS>BOND
     1     1     2   1
     2     1     6   1
     3     1    27  am
     4     2     3   1
     5     3     4   1
     6     4     5   1
     7     4     7   1
     8     5     6   1
     9     7     8   1
    10     8     9  ar
    11     8    13  ar
    12     9    10  ar
    13    10    11  ar
    14    11    12  ar
    15    11    14   1
    16    12    13  ar
    17    12    26   1
    18    14    15   2
    19    14    16   1
    20    16    17  ar
    21    16    21  ar
    22    17    18  ar
    23    17    24   1
    24    18    19  ar
    25    18    25   1
    26    19    20  ar
    27    20    21  ar
    28    21    22   1
    29    22    23   1
    30    27    28   1
    31    27    29   2
    32    27    30   2
    33     2    31   1
    34     2    32   1
    35     3    33   1
    36     3    34   1
    37     4    35   1
    38     5    36   1
    39     5    37   1
    40     6    38   1
    41     6    39   1
    42     7    40   1
    43    10    41   1
    44    19    42   1
    45    20    43   1
    46    23    44   1
    47    23    45   1
    48    23    46   1
    49    26    47   1
    50    26    48   1
    51    28    49   1
    52    28    50   1
    53    28    51   1
@<TRIPOS>SUBSTRUCTURE
     1  LIA      2

