@<TRIPOS>MOLECULE
2fvd_ligand_033
    51    53
SMALL
GAST_HUCK
****
This file was generated by PARSER (from files_GN.cpp)

@<TRIPOS>ATOM
      1 N1          7.6848   20.7550   11.5485 N.am        1 LIA      -0.2385
      2 C2          7.1338   19.6943   12.3560 C.3         1 LIA       0.0314
      3 C3          5.5803   19.7099   12.3732 C.3         1 LIA      -0.0122
      4 C4          4.9750   21.1142   12.6729 C.3         1 LIA       0.0456
      5 C5          5.6390   22.1628   11.7272 C.3         1 LIA      -0.0122
      6 C6          7.1863   22.0953   11.7463 C.3         1 LIA       0.0314
      7 N7          3.5392   21.0039   12.6091 N.pl3       1 LIA      -0.2866
      8 C8          2.6028   21.9774   12.4907 C.ar        1 LIA       0.1789
      9 N9          2.8593   23.2832   12.2578 N.ar        1 LIA      -0.2656
     10 C10         1.8971   24.2152   12.1070 C.ar        1 LIA       0.0186
     11 C11         0.5290   23.8630   12.1985 C.ar        1 LIA       0.0852
     12 C12         0.2718   22.4928   12.4903 C.ar        1 LIA       0.1302
     13 N13         1.3042   21.6195   12.6006 N.ar        1 LIA      -0.2356
     14 C14        -0.4680   24.8535   12.0435 C.2         1 LIA       0.1492
     15 O15        -0.1602   26.0334   12.1765 O.2         1 LIA      -0.3856
     16 C16        -1.8164   24.6246   11.7436 C.ar        1 LIA       0.0920
     17 C17        -2.8403   25.1351   12.5898 C.ar        1 LIA       0.1766
     18 C18        -4.1967   24.8731   12.3116 C.ar        1 LIA       0.1591
     19 C19        -4.5534   24.1035   11.1957 C.ar        1 LIA      -0.0338
     20 C20        -3.5602   23.5987   10.3479 C.ar        1 LIA      -0.0322
     21 C21        -2.1968   23.8690   10.5972 C.ar        1 LIA       0.1052
     22 O22        -1.2511   23.3517    9.7386 O.3         1 LIA      -0.3192
     23 C23        -1.2280   23.9998    8.4574 C.3         1 LIA       0.0603
     24 F24        -2.5486   25.8211   13.6654 F           1 LIA      -0.1811
     25 F25        -5.1340   25.3262   13.0973 F           1 LIA      -0.1924
     26 N26        -0.9452   21.9721   12.7327 N.pl3       1 LIA      -0.3135
     27 S27         9.2317   20.5784   10.8713 S.o2        1 LIA       0.0385
     28 C28        10.0296   18.9635   10.9618 C.3         1 LIA       0.0734
     29 O29        10.2429   21.5867   11.5675 O.2         1 LIA      -0.1556
     30 O30         9.1619   20.9677    9.3317 O.2         1 LIA      -0.1556
     31 H1          7.5119   19.7971   13.3744 H           1 LIA       0.0479
     32 H2          7.4426   18.7191   11.9790 H           1 LIA       0.0479
     33 H3          5.2338   18.9933   13.1258 H           1 LIA       0.0304
     34 H4          5.2225   19.3624   11.3967 H           1 LIA       0.0304
     35 H5          5.2274   21.3774   13.6973 H           1 LIA       0.0563
     36 H6          5.3580   23.1637   12.0419 H           1 LIA       0.0304
     37 H7          5.2836   22.0064   10.7056 H           1 LIA       0.0304
     38 H8          7.5536   22.7704   10.9661 H           1 LIA       0.0479
     39 H9          7.5577   22.4692   12.7028 H           1 LIA       0.0479
     40 H10         3.1817   20.1137   12.7511 H           1 LIA       0.1881
     41 H11         2.1912   25.1709   11.9151 H           1 LIA       0.0904
     42 H12        -5.5320   23.9023   10.9948 H           1 LIA       0.0605
     43 H13        -3.8259   23.0429    9.5287 H           1 LIA       0.0512
     44 H14        -0.4277   23.5598    7.8711 H           1 LIA       0.0579
     45 H15        -1.0420   25.0709    8.5555 H           1 LIA       0.0579
     46 H16        -2.1682   23.8437    7.9178 H           1 LIA       0.0579
     47 H17        -1.0294   21.0346   12.9527 H           1 LIA       0.1831
     48 H18        -1.7368   22.5332   12.7426 H           1 LIA       0.1831
     49 H19        11.0290   19.0276   10.5274 H           1 LIA       0.0482
     50 H20         9.4488   18.2252   10.4062 H           1 LIA       0.0482
     51 H21        10.1162   18.6481   12.0039 H           1 LIA       0.0482
@<TRIPOS>BOND
     1     1     2   1
     2     1     6   1
     3     1    27  am
     4     2     3   1
     5     3     4   1
     6     4     5   1
     7     4     7   1
     8     5     6   1
     9     7     8   1
    10     8     9  ar
    11     8    13  ar
    12     9    10  ar
    13    10    11  ar
    14    11    12  ar
    15    11    14   1
    16    12    13  ar
    17    12    26   1
    18    14    15   2
    19    14    16   1
    20    16    17  ar
    21    16    21  ar
    22    17    18  ar
    23    17    24   1
    24    18    19  ar
    25    18    25   1
    26    19    20  ar
    27    20    21  ar
    28    21    22   1
    29    22    23   1
    30    27    28   1
    31    27    29   2
    32    27    30   2
    33     2    31   1
    34     2    32   1
    35     3    33   1
    36     3    34   1
    37     4    35   1
    38     5    36   1
    39     5    37   1
    40     6    38   1
    41     6    39   1
    42     7    40   1
    43    10    41   1
    44    19    42   1
    45    20    43   1
    46    23    44   1
    47    23    45   1
    48    23    46   1
    49    26    47   1
    50    26    48   1
    51    28    49   1
    52    28    50   1
    53    28    51   1
@<TRIPOS>SUBSTRUCTURE
     1  LIA      2

