@<TRIPOS>MOLECULE
2fvd_ligand_054
    51    53
SMALL
GAST_HUCK
****
This file was generated by PARSER (from files_GN.cpp)

@<TRIPOS>ATOM
      1 N1         -1.7725   30.7690   10.0872 N.am        1 LIA      -0.2385
      2 C2         -1.6136   30.1895   11.3947 C.3         1 LIA       0.0314
      3 C3         -2.5405   28.9707   11.6007 C.3         1 LIA      -0.0122
      4 C4         -4.0281   29.2919   11.2594 C.3         1 LIA       0.0456
      5 C5         -4.0986   29.9282    9.8395 C.3         1 LIA      -0.0122
      6 C6         -3.1014   31.1019    9.6395 C.3         1 LIA       0.0314
      7 N7         -4.9196   28.1658   11.2586 N.pl3       1 LIA      -0.2866
      8 C8         -4.9319   27.0978   12.0793 C.ar        1 LIA       0.1789
      9 N9         -4.0288   26.8781   13.0639 N.ar        1 LIA      -0.2656
     10 C10        -4.0498   25.7752   13.8444 C.ar        1 LIA       0.0186
     11 C11        -5.0643   24.8093   13.6788 C.ar        1 LIA       0.0852
     12 C12        -5.9784   25.0302   12.6224 C.ar        1 LIA       0.1302
     13 N13        -5.8881   26.1597   11.8735 N.ar        1 LIA      -0.2356
     14 C14        -5.0367   23.6608   14.4542 C.2         1 LIA       0.1492
     15 O15        -4.0856   22.9300   14.2107 O.2         1 LIA      -0.3856
     16 C16        -5.7733   23.4891   15.6477 C.ar        1 LIA       0.0920
     17 C17        -7.1630   23.8027   15.7295 C.ar        1 LIA       0.1766
     18 C18        -7.9081   23.5325   16.8991 C.ar        1 LIA       0.1591
     19 C19        -7.2717   23.0022   18.0332 C.ar        1 LIA      -0.0338
     20 C20        -5.8999   22.7362   17.9947 C.ar        1 LIA      -0.0322
     21 C21        -5.1545   22.9415   16.8145 C.ar        1 LIA       0.1052
     22 O22        -3.7981   22.7364   16.8952 O.3         1 LIA      -0.3192
     23 C23        -3.3779   21.3710   16.7271 C.3         1 LIA       0.0603
     24 F24        -7.8133   24.3252   14.7233 F           1 LIA      -0.1811
     25 F25        -9.1929   23.7665   16.9562 F           1 LIA      -0.1924
     26 N26        -6.9591   24.1676   12.2988 N.pl3       1 LIA      -0.3135
     27 S27        -0.4267   31.5699    9.4424 S.o2        1 LIA       0.0385
     28 C28        -0.6860   32.6879    8.0577 C.3         1 LIA       0.0734
     29 O29         0.6424   30.4848    8.9851 O.2         1 LIA      -0.1556
     30 O30         0.2227   32.4662   10.5842 O.2         1 LIA      -0.1556
     31 H1         -1.8361   30.9524   12.1472 H           1 LIA       0.0479
     32 H2         -0.5844   29.8527   11.5582 H           1 LIA       0.0479
     33 H3         -2.4407   28.6821   12.6457 H           1 LIA       0.0304
     34 H4         -2.1898   28.1426   10.9795 H           1 LIA       0.0304
     35 H5         -4.3979   30.0208   11.9873 H           1 LIA       0.0563
     36 H6         -5.1132   30.2907    9.6441 H           1 LIA       0.0304
     37 H7         -3.8716   29.1597    9.0912 H           1 LIA       0.0304
     38 H8         -3.1025   31.3510    8.5747 H           1 LIA       0.0479
     39 H9         -3.4533   31.9776   10.1930 H           1 LIA       0.0479
     40 H10        -5.6107   28.1700   10.5772 H           1 LIA       0.1881
     41 H11        -3.3125   25.6567   14.5458 H           1 LIA       0.0904
     42 H12        -7.8021   22.8311   18.8877 H           1 LIA       0.0605
     43 H13        -5.4394   22.3886   18.8380 H           1 LIA       0.0512
     44 H14        -2.2965   21.3367   16.8499 H           1 LIA       0.0579
     45 H15        -3.6223   20.9927   15.7333 H           1 LIA       0.0579
     46 H16        -3.8215   20.7150   17.4800 H           1 LIA       0.0579
     47 H17        -7.5844   24.3897   11.5893 H           1 LIA       0.1831
     48 H18        -7.0577   23.3369   12.7835 H           1 LIA       0.1831
     49 H19         0.2757   33.0960    7.7492 H           1 LIA       0.0482
     50 H20        -1.3393   33.5014    8.3686 H           1 LIA       0.0482
     51 H21        -1.1348   32.1519    7.2235 H           1 LIA       0.0482
@<TRIPOS>BOND
     1     1     2   1
     2     1     6   1
     3     1    27  am
     4     2     3   1
     5     3     4   1
     6     4     5   1
     7     4     7   1
     8     5     6   1
     9     7     8   1
    10     8     9  ar
    11     8    13  ar
    12     9    10  ar
    13    10    11  ar
    14    11    12  ar
    15    11    14   1
    16    12    13  ar
    17    12    26   1
    18    14    15   2
    19    14    16   1
    20    16    17  ar
    21    16    21  ar
    22    17    18  ar
    23    17    24   1
    24    18    19  ar
    25    18    25   1
    26    19    20  ar
    27    20    21  ar
    28    21    22   1
    29    22    23   1
    30    27    28   1
    31    27    29   2
    32    27    30   2
    33     2    31   1
    34     2    32   1
    35     3    33   1
    36     3    34   1
    37     4    35   1
    38     5    36   1
    39     5    37   1
    40     6    38   1
    41     6    39   1
    42     7    40   1
    43    10    41   1
    44    19    42   1
    45    20    43   1
    46    23    44   1
    47    23    45   1
    48    23    46   1
    49    26    47   1
    50    26    48   1
    51    28    49   1
    52    28    50   1
    53    28    51   1
@<TRIPOS>SUBSTRUCTURE
     1  LIA      2

