@<TRIPOS>MOLECULE
2fvd_ligand_035
    51    53
SMALL
GAST_HUCK
****
This file was generated by PARSER (from files_GN.cpp)

@<TRIPOS>ATOM
      1 N1         -5.7678   23.1137   16.1812 N.am        1 LIA      -0.2385
      2 C2         -5.1557   24.2701   15.5705 C.3         1 LIA       0.0314
      3 C3         -4.3304   23.9052   14.3069 C.3         1 LIA      -0.0122
      4 C4         -3.3608   22.7233   14.5679 C.3         1 LIA       0.0456
      5 C5         -4.1242   21.5283   15.2057 C.3         1 LIA      -0.0122
      6 C6         -4.9271   21.9709   16.4588 C.3         1 LIA       0.0314
      7 N7         -2.7057   22.2899   13.3641 N.pl3       1 LIA      -0.2866
      8 C8         -1.6437   22.8963   12.7923 C.ar        1 LIA       0.1789
      9 N9         -1.0207   22.2819   11.7547 N.ar        1 LIA      -0.2656
     10 C10         0.0724   22.8086   11.1573 C.ar        1 LIA       0.0186
     11 C11         0.6187   24.0374   11.6018 C.ar        1 LIA       0.0852
     12 C12        -0.0483   24.6661   12.6821 C.ar        1 LIA       0.1302
     13 N13        -1.1349   24.0780   13.2411 N.ar        1 LIA      -0.2356
     14 C14         1.7361   24.5822   10.9734 C.2         1 LIA       0.1492
     15 O15         1.6835   25.7541   10.6248 O.2         1 LIA      -0.3856
     16 C16         2.9269   23.8838   10.7596 C.ar        1 LIA       0.0920
     17 C17         3.5090   23.0848   11.7880 C.ar        1 LIA       0.1766
     18 C18         4.7254   22.4106   11.5616 C.ar        1 LIA       0.1591
     19 C19         5.3673   22.5054   10.3157 C.ar        1 LIA      -0.0338
     20 C20         4.8014   23.2840    9.2906 C.ar        1 LIA      -0.0322
     21 C21         3.5971   23.9784    9.5083 C.ar        1 LIA       0.1052
     22 O22         3.0181   24.6331    8.4448 O.3         1 LIA      -0.3192
     23 C23         3.6207   25.8795    8.0769 C.3         1 LIA       0.0603
     24 F24         2.9493   22.9792   12.9714 F           1 LIA      -0.1811
     25 F25         5.2674   21.6880   12.5115 F           1 LIA      -0.1924
     26 N26         0.3705   25.8290   13.2182 N.pl3       1 LIA      -0.3135
     27 S27        -7.2109   23.3249   17.0409 S.o2        1 LIA       0.0385
     28 C28        -7.4178   24.9313   17.8422 C.3         1 LIA       0.0734
     29 O29        -7.3452   22.2590   18.2117 O.2         1 LIA      -0.1556
     30 O30        -8.4360   23.0804   16.0532 O.2         1 LIA      -0.1556
     31 H1         -4.5023   24.7518   16.3056 H           1 LIA       0.0479
     32 H2         -5.9075   25.0025   15.2663 H           1 LIA       0.0479
     33 H3         -3.7634   24.7836   13.9884 H           1 LIA       0.0304
     34 H4         -5.0216   23.6413   13.5020 H           1 LIA       0.0304
     35 H5         -2.5968   23.0416   15.2871 H           1 LIA       0.0563
     36 H6         -3.4114   20.7506   15.4905 H           1 LIA       0.0304
     37 H7         -4.8167   21.1021   14.4767 H           1 LIA       0.0304
     38 H8         -5.5159   21.1110   16.7822 H           1 LIA       0.0479
     39 H9         -4.2342   22.2277   17.2661 H           1 LIA       0.0479
     40 H10        -3.0150   21.4621   12.9594 H           1 LIA       0.1881
     41 H11         0.4863   22.2937   10.3717 H           1 LIA       0.0904
     42 H12         6.2389   22.0023   10.1432 H           1 LIA       0.0605
     43 H13         5.2580   23.3219    8.3763 H           1 LIA       0.0512
     44 H14         2.9481   26.3564    7.3671 H           1 LIA       0.0579
     45 H15         4.5792   25.7330    7.5882 H           1 LIA       0.0579
     46 H16         3.7434   26.5429    8.9295 H           1 LIA       0.0579
     47 H17        -0.0994   26.2195   13.9645 H           1 LIA       0.1831
     48 H18         1.1604   26.2748   12.8676 H           1 LIA       0.1831
     49 H19        -8.3154   24.9176   18.4602 H           1 LIA       0.0482
     50 H20        -7.5162   25.7106   17.0869 H           1 LIA       0.0482
     51 H21        -6.5500   25.1399   18.4683 H           1 LIA       0.0482
@<TRIPOS>BOND
     1     1     2   1
     2     1     6   1
     3     1    27  am
     4     2     3   1
     5     3     4   1
     6     4     5   1
     7     4     7   1
     8     5     6   1
     9     7     8   1
    10     8     9  ar
    11     8    13  ar
    12     9    10  ar
    13    10    11  ar
    14    11    12  ar
    15    11    14   1
    16    12    13  ar
    17    12    26   1
    18    14    15   2
    19    14    16   1
    20    16    17  ar
    21    16    21  ar
    22    17    18  ar
    23    17    24   1
    24    18    19  ar
    25    18    25   1
    26    19    20  ar
    27    20    21  ar
    28    21    22   1
    29    22    23   1
    30    27    28   1
    31    27    29   2
    32    27    30   2
    33     2    31   1
    34     2    32   1
    35     3    33   1
    36     3    34   1
    37     4    35   1
    38     5    36   1
    39     5    37   1
    40     6    38   1
    41     6    39   1
    42     7    40   1
    43    10    41   1
    44    19    42   1
    45    20    43   1
    46    23    44   1
    47    23    45   1
    48    23    46   1
    49    26    47   1
    50    26    48   1
    51    28    49   1
    52    28    50   1
    53    28    51   1
@<TRIPOS>SUBSTRUCTURE
     1  LIA      2

