@<TRIPOS>MOLECULE
2fvd_ligand_016
    51    53
SMALL
GAST_HUCK
****
This file was generated by PARSER (from files_GN.cpp)

@<TRIPOS>ATOM
      1 N1         -3.8930   23.0967   16.8226 N.am        1 LIA      -0.2385
      2 C2         -3.9858   22.3947   15.5600 C.3         1 LIA       0.0314
      3 C3         -2.9602   22.9038   14.5193 C.3         1 LIA      -0.0122
      4 C4         -2.9968   24.4490   14.3784 C.3         1 LIA       0.0456
      5 C5         -2.8093   25.0914   15.7816 C.3         1 LIA      -0.0122
      6 C6         -3.8481   24.5413   16.7945 C.3         1 LIA       0.0314
      7 N7         -1.9732   24.8450   13.4551 N.pl3       1 LIA      -0.2866
      8 C8         -1.8971   26.0249   12.7969 C.ar        1 LIA       0.1789
      9 N9         -2.7722   27.0516   12.9694 N.ar        1 LIA      -0.2656
     10 C10        -2.6916   28.1920   12.2327 C.ar        1 LIA       0.0186
     11 C11        -1.6921   28.3414   11.2399 C.ar        1 LIA       0.0852
     12 C12        -0.7768   27.2658   11.1029 C.ar        1 LIA       0.1302
     13 N13        -0.9073   26.1602   11.8776 N.ar        1 LIA      -0.2356
     14 C14        -1.6590   29.4566   10.3955 C.2         1 LIA       0.1492
     15 O15        -0.6196   30.1023   10.4972 O.2         1 LIA      -0.3856
     16 C16        -2.5599   29.7403    9.3352 C.ar        1 LIA       0.0920
     17 C17        -3.6282   28.8509    8.9925 C.ar        1 LIA       0.1766
     18 C18        -4.5082   29.1281    7.9293 C.ar        1 LIA       0.1591
     19 C19        -4.3666   30.3024    7.1831 C.ar        1 LIA      -0.0338
     20 C20        -3.3410   31.1970    7.4975 C.ar        1 LIA      -0.0322
     21 C21        -2.4260   30.9273    8.5384 C.ar        1 LIA       0.1052
     22 O22        -1.4769   31.8884    8.8141 O.3         1 LIA      -0.3192
     23 C23        -0.6159   32.2927    7.7313 C.3         1 LIA       0.0603
     24 F24        -3.8455   27.7289    9.6218 F           1 LIA      -0.1811
     25 F25        -5.4710   28.3008    7.6233 F           1 LIA      -0.1924
     26 N26         0.2211   27.2701   10.2071 N.pl3       1 LIA      -0.3135
     27 S27        -4.5674   22.3618   18.1880 S.o2        1 LIA       0.0385
     28 C28        -4.6150   20.5568   18.1995 C.3         1 LIA       0.0734
     29 O29        -6.0496   22.8882   18.4230 O.2         1 LIA      -0.1556
     30 O30        -3.6943   22.7324   19.4670 O.2         1 LIA      -0.1556
     31 H1         -4.9959   22.5163   15.1615 H           1 LIA       0.0479
     32 H2         -3.7981   21.3256   15.6880 H           1 LIA       0.0479
     33 H3         -3.1696   22.4412   13.5508 H           1 LIA       0.0304
     34 H4         -1.9590   22.5874   14.8326 H           1 LIA       0.0304
     35 H5         -3.9755   24.7343   13.9757 H           1 LIA       0.0563
     36 H6         -2.9097   26.1791   15.7130 H           1 LIA       0.0304
     37 H7         -1.7999   24.8740   16.1489 H           1 LIA       0.0304
     38 H8         -3.5869   24.9426   17.7773 H           1 LIA       0.0479
     39 H9         -4.8397   24.9234   16.5352 H           1 LIA       0.0479
     40 H10        -1.3440   24.1584   13.1756 H           1 LIA       0.1881
     41 H11        -3.3942   28.9196   12.3858 H           1 LIA       0.0904
     42 H12        -5.0179   30.5127    6.4181 H           1 LIA       0.0605
     43 H13        -3.2737   32.0567    6.9552 H           1 LIA       0.0512
     44 H14         0.2430   32.8127    8.1463 H           1 LIA       0.0579
     45 H15        -1.1293   32.9905    7.0746 H           1 LIA       0.0579
     46 H16        -0.2595   31.4449    7.1471 H           1 LIA       0.0579
     47 H17         0.8150   26.5106   10.1439 H           1 LIA       0.1831
     48 H18         0.3430   28.0326    9.6281 H           1 LIA       0.1831
     49 H19        -5.0196   20.2113   19.1525 H           1 LIA       0.0482
     50 H20        -3.6055   20.1599   18.0758 H           1 LIA       0.0482
     51 H21        -5.2518   20.2001   17.3878 H           1 LIA       0.0482
@<TRIPOS>BOND
     1     1     2   1
     2     1     6   1
     3     1    27  am
     4     2     3   1
     5     3     4   1
     6     4     5   1
     7     4     7   1
     8     5     6   1
     9     7     8   1
    10     8     9  ar
    11     8    13  ar
    12     9    10  ar
    13    10    11  ar
    14    11    12  ar
    15    11    14   1
    16    12    13  ar
    17    12    26   1
    18    14    15   2
    19    14    16   1
    20    16    17  ar
    21    16    21  ar
    22    17    18  ar
    23    17    24   1
    24    18    19  ar
    25    18    25   1
    26    19    20  ar
    27    20    21  ar
    28    21    22   1
    29    22    23   1
    30    27    28   1
    31    27    29   2
    32    27    30   2
    33     2    31   1
    34     2    32   1
    35     3    33   1
    36     3    34   1
    37     4    35   1
    38     5    36   1
    39     5    37   1
    40     6    38   1
    41     6    39   1
    42     7    40   1
    43    10    41   1
    44    19    42   1
    45    20    43   1
    46    23    44   1
    47    23    45   1
    48    23    46   1
    49    26    47   1
    50    26    48   1
    51    28    49   1
    52    28    50   1
    53    28    51   1
@<TRIPOS>SUBSTRUCTURE
     1  LIA      2

