@<TRIPOS>MOLECULE
2fvd_ligand_077
    51    53
SMALL
GAST_HUCK
****
This file was generated by PARSER (from files_GN.cpp)

@<TRIPOS>ATOM
      1 N1          5.4424   25.9123    4.0398 N.am        1 LIA      -0.2385
      2 C2          5.4149   26.8929    5.1030 C.3         1 LIA       0.0314
      3 C3          4.1705   26.6858    6.0170 C.3         1 LIA      -0.0122
      4 C4          4.0807   25.2101    6.5228 C.3         1 LIA       0.0456
      5 C5          4.1219   24.2678    5.2748 C.3         1 LIA      -0.0122
      6 C6          5.3838   24.5228    4.4130 C.3         1 LIA       0.0314
      7 N7          5.0951   25.0102    7.5219 N.pl3       1 LIA      -0.2866
      8 C8          5.4887   23.8481    8.0867 C.ar        1 LIA       0.1789
      9 N9          5.0544   22.6279    7.6745 N.ar        1 LIA      -0.2656
     10 C10         5.5418   21.4704    8.1675 C.ar        1 LIA       0.0186
     11 C11         6.5297   21.4937    9.1769 C.ar        1 LIA       0.0852
     12 C12         6.8930   22.7703    9.6773 C.ar        1 LIA       0.1302
     13 N13         6.4038   23.8968    9.0880 N.ar        1 LIA      -0.2356
     14 C14         7.0809   20.3115    9.6259 C.2         1 LIA       0.1492
     15 O15         6.3538   19.6372   10.3467 O.2         1 LIA      -0.3856
     16 C16         8.2042   19.7367    9.0142 C.ar        1 LIA       0.0920
     17 C17         9.3728   20.5026    8.7277 C.ar        1 LIA       0.1766
     18 C18        10.5176   19.9179    8.1456 C.ar        1 LIA       0.1591
     19 C19        10.5206   18.5575    7.8264 C.ar        1 LIA      -0.0338
     20 C20         9.3878   17.7798    8.0934 C.ar        1 LIA      -0.0322
     21 C21         8.2295   18.3553    8.6614 C.ar        1 LIA       0.1052
     22 O22         7.1519   17.5281    8.8695 O.3         1 LIA      -0.3192
     23 C23         6.2896   17.4040    7.7215 C.3         1 LIA       0.0603
     24 F24         9.4863   21.7662    9.0255 F           1 LIA      -0.1811
     25 F25        11.5829   20.6365    7.9086 F           1 LIA      -0.1924
     26 N26         7.7284   22.9158   10.7208 N.pl3       1 LIA      -0.3135
     27 S27         5.0297   26.3607    2.4634 S.o2        1 LIA       0.0385
     28 C28         3.2554   26.4557    2.1643 C.3         1 LIA       0.0734
     29 O29         5.6669   25.3244    1.4348 O.2         1 LIA      -0.1556
     30 O30         5.7424   27.7305    2.0765 O.2         1 LIA      -0.1556
     31 H1          5.4173   27.9142    4.7231 H           1 LIA       0.0479
     32 H2          6.3208   26.7763    5.7039 H           1 LIA       0.0479
     33 H3          3.2722   26.9332    5.4492 H           1 LIA       0.0304
     34 H4          4.2201   27.3795    6.8637 H           1 LIA       0.0304
     35 H5          3.1146   25.0783    7.0193 H           1 LIA       0.0563
     36 H6          3.2317   24.4484    4.6669 H           1 LIA       0.0304
     37 H7          4.0735   23.2188    5.5462 H           1 LIA       0.0304
     38 H8          6.2751   24.2646    4.9844 H           1 LIA       0.0479
     39 H9          5.3526   23.8536    3.5491 H           1 LIA       0.0479
     40 H10         5.5343   25.8059    7.8565 H           1 LIA       0.1881
     41 H11         5.1914   20.5983    7.7732 H           1 LIA       0.0904
     42 H12        11.3461   18.1337    7.4123 H           1 LIA       0.0605
     43 H13         9.3999   16.7891    7.8620 H           1 LIA       0.0512
     44 H14         5.4526   16.7647    7.9977 H           1 LIA       0.0579
     45 H15         6.8115   16.9470    6.8785 H           1 LIA       0.0579
     46 H16         5.8879   18.3690    7.4161 H           1 LIA       0.0579
     47 H17         7.9561   23.7998   11.0391 H           1 LIA       0.1831
     48 H18         8.1250   22.1346   11.1354 H           1 LIA       0.1831
     49 H19         3.0710   26.7312    1.1272 H           1 LIA       0.0482
     50 H20         2.8120   27.2011    2.8240 H           1 LIA       0.0482
     51 H21         2.8032   25.4831    2.3645 H           1 LIA       0.0482
@<TRIPOS>BOND
     1     1     2   1
     2     1     6   1
     3     1    27  am
     4     2     3   1
     5     3     4   1
     6     4     5   1
     7     4     7   1
     8     5     6   1
     9     7     8   1
    10     8     9  ar
    11     8    13  ar
    12     9    10  ar
    13    10    11  ar
    14    11    12  ar
    15    11    14   1
    16    12    13  ar
    17    12    26   1
    18    14    15   2
    19    14    16   1
    20    16    17  ar
    21    16    21  ar
    22    17    18  ar
    23    17    24   1
    24    18    19  ar
    25    18    25   1
    26    19    20  ar
    27    20    21  ar
    28    21    22   1
    29    22    23   1
    30    27    28   1
    31    27    29   2
    32    27    30   2
    33     2    31   1
    34     2    32   1
    35     3    33   1
    36     3    34   1
    37     4    35   1
    38     5    36   1
    39     5    37   1
    40     6    38   1
    41     6    39   1
    42     7    40   1
    43    10    41   1
    44    19    42   1
    45    20    43   1
    46    23    44   1
    47    23    45   1
    48    23    46   1
    49    26    47   1
    50    26    48   1
    51    28    49   1
    52    28    50   1
    53    28    51   1
@<TRIPOS>SUBSTRUCTURE
     1  LIA      2

