@<TRIPOS>MOLECULE
2fvd_ligand_030
    51    53
SMALL
GAST_HUCK
****
This file was generated by PARSER (from files_GN.cpp)

@<TRIPOS>ATOM
      1 N1          2.3959   24.3996    9.5792 N.am        1 LIA      -0.2385
      2 C2          1.4401   23.4090    9.1473 C.3         1 LIA       0.0314
      3 C3         -0.0060   23.7726    9.5726 C.3         1 LIA      -0.0122
      4 C4         -0.0969   24.1492   11.0840 C.3         1 LIA       0.0456
      5 C5          1.0001   25.1849   11.4773 C.3         1 LIA      -0.0122
      6 C6          2.4095   24.7746   10.9725 C.3         1 LIA       0.0314
      7 N7         -1.4174   24.5593   11.4893 N.pl3       1 LIA      -0.2866
      8 C8         -2.1080   25.6401   11.0656 C.ar        1 LIA       0.1789
      9 N9         -1.6183   26.4861   10.1239 N.ar        1 LIA      -0.2656
     10 C10        -2.2865   27.5835    9.7180 C.ar        1 LIA       0.0186
     11 C11        -3.5472   27.9085   10.2752 C.ar        1 LIA       0.0852
     12 C12        -4.0491   26.9956   11.2455 C.ar        1 LIA       0.1302
     13 N13        -3.3236   25.9046   11.6032 N.ar        1 LIA      -0.2356
     14 C14        -4.2153   29.0726    9.8844 C.2         1 LIA       0.1492
     15 O15        -5.4393   29.1239    9.9277 O.2         1 LIA      -0.3856
     16 C16        -3.5575   30.2872    9.7394 C.ar        1 LIA       0.0920
     17 C17        -3.4742   31.1799   10.8400 C.ar        1 LIA       0.1766
     18 C18        -2.7998   32.4100   10.7029 C.ar        1 LIA       0.1591
     19 C19        -2.1833   32.7436    9.4873 C.ar        1 LIA      -0.0338
     20 C20        -2.2731   31.8731    8.3919 C.ar        1 LIA      -0.0322
     21 C21        -2.9841   30.6610    8.4932 C.ar        1 LIA       0.1052
     22 O22        -3.0106   29.8465    7.3889 O.3         1 LIA      -0.3192
     23 C23        -4.2568   29.8454    6.6665 C.3         1 LIA       0.0603
     24 F24        -4.0088   30.8787   11.9976 F           1 LIA      -0.1811
     25 F25        -2.7323   33.2462   11.6999 F           1 LIA      -0.1924
     26 N26        -5.2099   27.1720   11.9011 N.pl3       1 LIA      -0.3135
     27 S27         3.8331   24.5450    8.6940 S.o2        1 LIA       0.0385
     28 C28         4.9635   23.1649    8.9375 C.3         1 LIA       0.0734
     29 O29         4.5722   25.9119    9.0355 O.2         1 LIA      -0.1556
     30 O30         3.5090   24.6998    7.1440 O.2         1 LIA      -0.1556
     31 H1          1.7153   22.4402    9.5750 H           1 LIA       0.0479
     32 H2          1.4439   23.3047    8.0575 H           1 LIA       0.0479
     33 H3         -0.6677   22.9268    9.3638 H           1 LIA       0.0304
     34 H4         -0.3291   24.6039    8.9449 H           1 LIA       0.0304
     35 H5          0.1113   23.2372   11.6523 H           1 LIA       0.0563
     36 H6          1.0282   25.2919   12.5645 H           1 LIA       0.0304
     37 H7          0.7631   26.1651   11.0596 H           1 LIA       0.0304
     38 H8          3.0797   25.6207   11.1512 H           1 LIA       0.0479
     39 H9          2.7815   23.9320   11.5619 H           1 LIA       0.0479
     40 H10        -1.8502   24.0121   12.1640 H           1 LIA       0.1881
     41 H11        -1.8492   28.1522    8.9918 H           1 LIA       0.0904
     42 H12        -1.6795   33.6286    9.3928 H           1 LIA       0.0605
     43 H13        -1.8274   32.1307    7.5098 H           1 LIA       0.0512
     44 H14        -4.1162   29.2502    5.7629 H           1 LIA       0.0579
     45 H15        -4.5597   30.8574    6.3791 H           1 LIA       0.0579
     46 H16        -5.0602   29.3798    7.2428 H           1 LIA       0.0579
     47 H17        -5.4893   26.5365   12.5784 H           1 LIA       0.1831
     48 H18        -5.7581   27.9486   11.7173 H           1 LIA       0.1831
     49 H19         5.8681   23.3369    8.3539 H           1 LIA       0.0482
     50 H20         4.4873   22.2410    8.6086 H           1 LIA       0.0482
     51 H21         5.2209   23.0833    9.9944 H           1 LIA       0.0482
@<TRIPOS>BOND
     1     1     2   1
     2     1     6   1
     3     1    27  am
     4     2     3   1
     5     3     4   1
     6     4     5   1
     7     4     7   1
     8     5     6   1
     9     7     8   1
    10     8     9  ar
    11     8    13  ar
    12     9    10  ar
    13    10    11  ar
    14    11    12  ar
    15    11    14   1
    16    12    13  ar
    17    12    26   1
    18    14    15   2
    19    14    16   1
    20    16    17  ar
    21    16    21  ar
    22    17    18  ar
    23    17    24   1
    24    18    19  ar
    25    18    25   1
    26    19    20  ar
    27    20    21  ar
    28    21    22   1
    29    22    23   1
    30    27    28   1
    31    27    29   2
    32    27    30   2
    33     2    31   1
    34     2    32   1
    35     3    33   1
    36     3    34   1
    37     4    35   1
    38     5    36   1
    39     5    37   1
    40     6    38   1
    41     6    39   1
    42     7    40   1
    43    10    41   1
    44    19    42   1
    45    20    43   1
    46    23    44   1
    47    23    45   1
    48    23    46   1
    49    26    47   1
    50    26    48   1
    51    28    49   1
    52    28    50   1
    53    28    51   1
@<TRIPOS>SUBSTRUCTURE
     1  LIA      2

