@<TRIPOS>MOLECULE
2fvd_ligand_058
    51    53
SMALL
GAST_HUCK
****
This file was generated by PARSER (from files_GN.cpp)

@<TRIPOS>ATOM
      1 N1         -3.2818   22.9040   14.9150 N.am        1 LIA      -0.2385
      2 C2         -2.9710   24.1438   15.5778 C.3         1 LIA       0.0314
      3 C3         -3.5120   25.3707   14.8162 C.3         1 LIA      -0.0122
      4 C4         -3.1450   25.3335   13.3103 C.3         1 LIA       0.0456
      5 C5         -3.6043   23.9850   12.6948 C.3         1 LIA      -0.0122
      6 C6         -3.0428   22.7813   13.4976 C.3         1 LIA       0.0314
      7 N7         -3.8017   26.4282   12.6634 N.pl3       1 LIA      -0.2866
      8 C8         -3.2280   27.5839   12.2472 C.ar        1 LIA       0.1789
      9 N9         -1.8908   27.8129   12.2263 N.ar        1 LIA      -0.2656
     10 C10        -1.3722   29.0014   11.8172 C.ar        1 LIA       0.0186
     11 C11        -2.2244   30.0511   11.4154 C.ar        1 LIA       0.0852
     12 C12        -3.6154   29.7885   11.4512 C.ar        1 LIA       0.1302
     13 N13        -4.0624   28.5686   11.8471 N.ar        1 LIA      -0.2356
     14 C14        -1.7034   31.2530   10.9507 C.2         1 LIA       0.1492
     15 O15        -2.0529   32.2508   11.5648 O.2         1 LIA      -0.3856
     16 C16        -0.9830   31.3951    9.7492 C.ar        1 LIA       0.0920
     17 C17        -0.0867   32.4942    9.5738 C.ar        1 LIA       0.1766
     18 C18         0.6005   32.6955    8.3596 C.ar        1 LIA       0.1591
     19 C19         0.4434   31.7866    7.3053 C.ar        1 LIA      -0.0338
     20 C20        -0.4045   30.6805    7.4607 C.ar        1 LIA      -0.0322
     21 C21        -1.1443   30.5036    8.6507 C.ar        1 LIA       0.1052
     22 O22        -2.0141   29.4427    8.6927 O.3         1 LIA      -0.3192
     23 C23        -3.3086   29.7328    8.1265 C.3         1 LIA       0.0603
     24 F24         0.1619   33.3295   10.5524 F           1 LIA      -0.1811
     25 F25         1.4062   33.7093    8.2050 F           1 LIA      -0.1924
     26 N26        -4.5411   30.6909   11.0782 N.pl3       1 LIA      -0.3135
     27 S27        -3.2953   21.5033   15.8695 S.o2        1 LIA       0.0385
     28 C28        -4.8697   21.1731   16.6773 C.3         1 LIA       0.0734
     29 O29        -2.1589   21.5924   16.9785 O.2         1 LIA      -0.1556
     30 O30        -2.9000   20.2255   15.0084 O.2         1 LIA      -0.1556
     31 H1         -1.8857   24.2301   15.6814 H           1 LIA       0.0479
     32 H2         -3.4047   24.1698   16.5833 H           1 LIA       0.0479
     33 H3         -3.0983   26.2760   15.2725 H           1 LIA       0.0304
     34 H4         -4.6020   25.3966   14.9313 H           1 LIA       0.0304
     35 H5         -2.0564   25.4082   13.2141 H           1 LIA       0.0563
     36 H6         -3.2635   23.9201   11.6576 H           1 LIA       0.0304
     37 H7         -4.6951   23.9342   12.6956 H           1 LIA       0.0304
     38 H8         -3.5074   21.8791   13.0964 H           1 LIA       0.0479
     39 H9         -1.9641   22.7046   13.3310 H           1 LIA       0.0479
     40 H10        -4.7722   26.4015   12.6406 H           1 LIA       0.1881
     41 H11        -0.3552   29.1156   11.8178 H           1 LIA       0.0904
     42 H12         0.9465   31.9229    6.4218 H           1 LIA       0.0605
     43 H13        -0.5089   30.0198    6.6879 H           1 LIA       0.0512
     44 H14        -3.9678   28.8877    8.3357 H           1 LIA       0.0579
     45 H15        -3.2476   29.8489    7.0399 H           1 LIA       0.0579
     46 H16        -3.7575   30.6230    8.5749 H           1 LIA       0.0579
     47 H17        -5.4826   30.4598   11.0998 H           1 LIA       0.1831
     48 H18        -4.2674   31.5662   10.7725 H           1 LIA       0.1831
     49 H19        -4.7760   20.3067   17.3299 H           1 LIA       0.0482
     50 H20        -5.6276   20.9726   15.9191 H           1 LIA       0.0482
     51 H21        -5.1665   22.0392   17.2676 H           1 LIA       0.0482
@<TRIPOS>BOND
     1     1     2   1
     2     1     6   1
     3     1    27  am
     4     2     3   1
     5     3     4   1
     6     4     5   1
     7     4     7   1
     8     5     6   1
     9     7     8   1
    10     8     9  ar
    11     8    13  ar
    12     9    10  ar
    13    10    11  ar
    14    11    12  ar
    15    11    14   1
    16    12    13  ar
    17    12    26   1
    18    14    15   2
    19    14    16   1
    20    16    17  ar
    21    16    21  ar
    22    17    18  ar
    23    17    24   1
    24    18    19  ar
    25    18    25   1
    26    19    20  ar
    27    20    21  ar
    28    21    22   1
    29    22    23   1
    30    27    28   1
    31    27    29   2
    32    27    30   2
    33     2    31   1
    34     2    32   1
    35     3    33   1
    36     3    34   1
    37     4    35   1
    38     5    36   1
    39     5    37   1
    40     6    38   1
    41     6    39   1
    42     7    40   1
    43    10    41   1
    44    19    42   1
    45    20    43   1
    46    23    44   1
    47    23    45   1
    48    23    46   1
    49    26    47   1
    50    26    48   1
    51    28    49   1
    52    28    50   1
    53    28    51   1
@<TRIPOS>SUBSTRUCTURE
     1  LIA      2

