@<TRIPOS>MOLECULE
2fvd_ligand_080
    51    53
SMALL
GAST_HUCK
****
This file was generated by PARSER (from files_GN.cpp)

@<TRIPOS>ATOM
      1 N1         -0.2989   29.3946    7.2577 N.am        1 LIA      -0.2385
      2 C2          0.7097   30.0489    6.4649 C.3         1 LIA       0.0314
      3 C3          2.0697   29.9699    7.2110 C.3         1 LIA      -0.0122
      4 C4          2.4390   28.5025    7.5883 C.3         1 LIA       0.0456
      5 C5          1.2466   27.8020    8.3122 C.3         1 LIA      -0.0122
      6 C6         -0.1003   28.0015    7.5639 C.3         1 LIA       0.0314
      7 N7          2.8219   27.7912    6.4000 N.pl3       1 LIA      -0.2866
      8 C8          3.6588   26.7338    6.3286 C.ar        1 LIA       0.1789
      9 N9          4.2040   26.1275    7.4153 N.ar        1 LIA      -0.2656
     10 C10         5.0592   25.0821    7.2974 C.ar        1 LIA       0.0186
     11 C11         5.4294   24.6033    6.0191 C.ar        1 LIA       0.0852
     12 C12         4.8460   25.2488    4.9015 C.ar        1 LIA       0.1302
     13 N13         3.9827   26.2753    5.0927 N.ar        1 LIA      -0.2356
     14 C14         6.3284   23.5558    5.8892 C.2         1 LIA       0.1492
     15 O15         7.3875   23.8179    5.3261 O.2         1 LIA      -0.3856
     16 C16         6.0895   22.2467    6.3369 C.ar        1 LIA       0.0920
     17 C17         7.1658   21.4234    6.7692 C.ar        1 LIA       0.1766
     18 C18         6.9433   20.0969    7.1937 C.ar        1 LIA       0.1591
     19 C19         5.6436   19.5713    7.2077 C.ar        1 LIA      -0.0338
     20 C20         4.5620   20.3661    6.7942 C.ar        1 LIA      -0.0322
     21 C21         4.7749   21.6874    6.3406 C.ar        1 LIA       0.1052
     22 O22         3.6771   22.3974    5.9186 O.3         1 LIA      -0.3192
     23 C23         3.2638   22.0901    4.5718 C.3         1 LIA       0.0603
     24 F24         8.3962   21.8709    6.8238 F           1 LIA      -0.1811
     25 F25         7.9436   19.3543    7.5883 F           1 LIA      -0.1924
     26 N26         5.0837   24.8734    3.6316 N.pl3       1 LIA      -0.3135
     27 S27        -1.3541   30.3164    8.2148 S.o2        1 LIA       0.0385
     28 C28        -1.0122   32.0813    8.3672 C.3         1 LIA       0.0734
     29 O29        -1.3284   29.7634    9.7041 O.2         1 LIA      -0.1556
     30 O30        -2.8411   30.1497    7.6743 O.2         1 LIA      -0.1556
     31 H1          0.4645   31.0937    6.2561 H           1 LIA       0.0479
     32 H2          0.7923   29.5422    5.4978 H           1 LIA       0.0479
     33 H3          2.0091   30.5696    8.1225 H           1 LIA       0.0304
     34 H4          2.8549   30.4040    6.5871 H           1 LIA       0.0304
     35 H5          3.2890   28.5382    8.2809 H           1 LIA       0.0563
     36 H6          1.1497   28.2252    9.3173 H           1 LIA       0.0304
     37 H7          1.4490   26.7337    8.4261 H           1 LIA       0.0304
     38 H8         -0.0848   27.4267    6.6354 H           1 LIA       0.0479
     39 H9         -0.9113   27.5888    8.1694 H           1 LIA       0.0479
     40 H10         2.5159   28.1589    5.5551 H           1 LIA       0.1881
     41 H11         5.4457   24.6676    8.1489 H           1 LIA       0.0904
     42 H12         5.4813   18.6110    7.5240 H           1 LIA       0.0605
     43 H13         3.6190   19.9709    6.8095 H           1 LIA       0.0512
     44 H14         2.4182   22.7313    4.3114 H           1 LIA       0.0579
     45 H15         2.9390   21.0490    4.4825 H           1 LIA       0.0579
     46 H16         4.0660   22.2811    3.8524 H           1 LIA       0.0579
     47 H17         4.6393   25.3313    2.9039 H           1 LIA       0.1831
     48 H18         5.6784   24.1315    3.4414 H           1 LIA       0.1831
     49 H19        -1.7525   32.5284    9.0385 H           1 LIA       0.0482
     50 H20        -1.0679   32.5670    7.3952 H           1 LIA       0.0482
     51 H21        -0.0185   32.2322    8.7908 H           1 LIA       0.0482
@<TRIPOS>BOND
     1     1     2   1
     2     1     6   1
     3     1    27  am
     4     2     3   1
     5     3     4   1
     6     4     5   1
     7     4     7   1
     8     5     6   1
     9     7     8   1
    10     8     9  ar
    11     8    13  ar
    12     9    10  ar
    13    10    11  ar
    14    11    12  ar
    15    11    14   1
    16    12    13  ar
    17    12    26   1
    18    14    15   2
    19    14    16   1
    20    16    17  ar
    21    16    21  ar
    22    17    18  ar
    23    17    24   1
    24    18    19  ar
    25    18    25   1
    26    19    20  ar
    27    20    21  ar
    28    21    22   1
    29    22    23   1
    30    27    28   1
    31    27    29   2
    32    27    30   2
    33     2    31   1
    34     2    32   1
    35     3    33   1
    36     3    34   1
    37     4    35   1
    38     5    36   1
    39     5    37   1
    40     6    38   1
    41     6    39   1
    42     7    40   1
    43    10    41   1
    44    19    42   1
    45    20    43   1
    46    23    44   1
    47    23    45   1
    48    23    46   1
    49    26    47   1
    50    26    48   1
    51    28    49   1
    52    28    50   1
    53    28    51   1
@<TRIPOS>SUBSTRUCTURE
     1  LIA      2

