@<TRIPOS>MOLECULE
2fvd_ligand_060
    51    53
SMALL
GAST_HUCK
****
This file was generated by PARSER (from files_GN.cpp)

@<TRIPOS>ATOM
      1 N1         -6.2460   25.3490   16.9488 N.am        1 LIA      -0.2385
      2 C2         -5.1005   25.3156   17.8254 C.3         1 LIA       0.0314
      3 C3         -3.7640   25.3609   17.0325 C.3         1 LIA      -0.0122
      4 C4         -3.7386   24.2930   15.9031 C.3         1 LIA       0.0456
      5 C5         -5.0008   24.4244   15.0019 C.3         1 LIA      -0.0122
      6 C6         -6.3125   24.4254   15.8423 C.3         1 LIA       0.0314
      7 N7         -2.4881   24.3013   15.1939 N.pl3       1 LIA      -0.2866
      8 C8         -2.0057   25.2281   14.3344 C.ar        1 LIA       0.1789
      9 N9         -2.7222   26.2928   13.8986 N.ar        1 LIA      -0.2656
     10 C10        -2.1989   27.1651   12.9948 C.ar        1 LIA       0.0186
     11 C11        -0.8848   27.0164   12.4669 C.ar        1 LIA       0.0852
     12 C12        -0.1694   25.8870   12.9672 C.ar        1 LIA       0.1302
     13 N13        -0.7506   25.0429   13.8588 N.ar        1 LIA      -0.2356
     14 C14        -0.3652   27.8940   11.4772 C.2         1 LIA       0.1492
     15 O15         0.7902   27.7793   11.0795 O.2         1 LIA      -0.3856
     16 C16        -1.1521   28.7629   10.7249 C.ar        1 LIA       0.0920
     17 C17        -1.8493   29.8415   11.3363 C.ar        1 LIA       0.1766
     18 C18        -2.7066   30.6606   10.5702 C.ar        1 LIA       0.1591
     19 C19        -2.8471   30.4349    9.1909 C.ar        1 LIA      -0.0338
     20 C20        -2.1142   29.4128    8.5687 C.ar        1 LIA      -0.0322
     21 C21        -1.2714   28.5741    9.3227 C.ar        1 LIA       0.1052
     22 O22        -0.5131   27.6621    8.6253 O.3         1 LIA      -0.3192
     23 C23        -0.8301   26.2847    8.8885 C.3         1 LIA       0.0603
     24 F24        -1.6842   30.1086   12.6085 F           1 LIA      -0.1811
     25 F25        -3.3779   31.6330   11.1268 F           1 LIA      -0.1924
     26 N26         1.0817   25.5246   12.6267 N.pl3       1 LIA      -0.3135
     27 S27        -7.6379   26.1616   17.4717 S.o2        1 LIA       0.0385
     28 C28        -7.5871   27.9122   17.0501 C.3         1 LIA       0.0734
     29 O29        -7.8174   25.9797   19.0428 O.2         1 LIA      -0.1556
     30 O30        -8.9562   25.5393   16.8351 O.2         1 LIA      -0.1556
     31 H1         -5.1396   24.4008   18.4262 H           1 LIA       0.0479
     32 H2         -5.1069   26.1653   18.5176 H           1 LIA       0.0479
     33 H3         -2.9325   25.1977   17.7235 H           1 LIA       0.0304
     34 H4         -3.6455   26.3611   16.6100 H           1 LIA       0.0304
     35 H5         -3.7941   23.3145   16.3958 H           1 LIA       0.0563
     36 H6         -5.0299   23.5950   14.2867 H           1 LIA       0.0304
     37 H7         -4.9438   25.3626   14.4395 H           1 LIA       0.0304
     38 H8         -7.1380   24.6630   15.1639 H           1 LIA       0.0479
     39 H9         -6.4878   23.4220   16.2438 H           1 LIA       0.0479
     40 H10        -1.9075   23.5447   15.3659 H           1 LIA       0.1881
     41 H11        -2.7986   27.9298   12.6898 H           1 LIA       0.0904
     42 H12        -3.4607   31.0294    8.6349 H           1 LIA       0.0605
     43 H13        -2.1901   29.2866    7.5602 H           1 LIA       0.0512
     44 H14        -0.2722   25.6651    8.1763 H           1 LIA       0.0579
     45 H15        -1.8977   26.0812    8.7587 H           1 LIA       0.0579
     46 H16        -0.5264   25.9980    9.9013 H           1 LIA       0.0579
     47 H17         1.4702   24.7243   13.0181 H           1 LIA       0.1831
     48 H18         1.5947   26.0427   11.9894 H           1 LIA       0.1831
     49 H19        -8.5105   28.3922   17.3728 H           1 LIA       0.0482
     50 H20        -7.4741   28.0277   15.9713 H           1 LIA       0.0482
     51 H21        -6.7408   28.3827   17.5510 H           1 LIA       0.0482
@<TRIPOS>BOND
     1     1     2   1
     2     1     6   1
     3     1    27  am
     4     2     3   1
     5     3     4   1
     6     4     5   1
     7     4     7   1
     8     5     6   1
     9     7     8   1
    10     8     9  ar
    11     8    13  ar
    12     9    10  ar
    13    10    11  ar
    14    11    12  ar
    15    11    14   1
    16    12    13  ar
    17    12    26   1
    18    14    15   2
    19    14    16   1
    20    16    17  ar
    21    16    21  ar
    22    17    18  ar
    23    17    24   1
    24    18    19  ar
    25    18    25   1
    26    19    20  ar
    27    20    21  ar
    28    21    22   1
    29    22    23   1
    30    27    28   1
    31    27    29   2
    32    27    30   2
    33     2    31   1
    34     2    32   1
    35     3    33   1
    36     3    34   1
    37     4    35   1
    38     5    36   1
    39     5    37   1
    40     6    38   1
    41     6    39   1
    42     7    40   1
    43    10    41   1
    44    19    42   1
    45    20    43   1
    46    23    44   1
    47    23    45   1
    48    23    46   1
    49    26    47   1
    50    26    48   1
    51    28    49   1
    52    28    50   1
    53    28    51   1
@<TRIPOS>SUBSTRUCTURE
     1  LIA      2

