@<TRIPOS>MOLECULE
2fvd_ligand_070
    51    53
SMALL
GAST_HUCK
****
This file was generated by PARSER (from files_GN.cpp)

@<TRIPOS>ATOM
      1 N1         -1.7758   29.8841   10.4572 N.am        1 LIA      -0.2385
      2 C2         -0.6869   29.9147   11.4021 C.3         1 LIA       0.0314
      3 C3          0.2468   28.6827   11.2835 C.3         1 LIA      -0.0122
      4 C4         -0.5641   27.3573   11.2641 C.3         1 LIA       0.0456
      5 C5         -1.6723   27.4096   10.1753 C.3         1 LIA      -0.0122
      6 C6         -2.5566   28.6749   10.3340 C.3         1 LIA       0.0314
      7 N7          0.2783   26.1999   11.1750 N.pl3       1 LIA      -0.2866
      8 C8          1.1764   25.8925   10.2115 C.ar        1 LIA       0.1789
      9 N9          1.4121   26.6566    9.1159 N.ar        1 LIA      -0.2656
     10 C10         2.3163   26.3060    8.1705 C.ar        1 LIA       0.0186
     11 C11         3.0760   25.1175    8.2963 C.ar        1 LIA       0.0852
     12 C12         2.8120   24.3355    9.4556 C.ar        1 LIA       0.1302
     13 N13         1.8865   24.7486   10.3573 N.ar        1 LIA      -0.2356
     14 C14         4.0084   24.7704    7.3097 C.2         1 LIA       0.1492
     15 O15         3.7699   25.0363    6.1388 O.2         1 LIA      -0.3856
     16 C16         5.2442   24.1872    7.5754 C.ar        1 LIA       0.0920
     17 C17         6.1686   24.8181    8.4508 C.ar        1 LIA       0.1766
     18 C18         7.3961   24.1999    8.7581 C.ar        1 LIA       0.1591
     19 C19         7.7302   22.9632    8.1798 C.ar        1 LIA      -0.0338
     20 C20         6.8379   22.3383    7.2932 C.ar        1 LIA      -0.0322
     21 C21         5.5914   22.9312    7.0030 C.ar        1 LIA       0.1052
     22 O22         4.7531   22.2667    6.1402 O.3         1 LIA      -0.3192
     23 C23         3.7267   21.5061    6.8084 C.3         1 LIA       0.0603
     24 F24         5.9218   25.9954    8.9684 F           1 LIA      -0.1811
     25 F25         8.2403   24.7683    9.5777 F           1 LIA      -0.1924
     26 N26         3.4023   23.1622    9.7393 N.pl3       1 LIA      -0.3135
     27 S27        -2.5491   31.3401   10.0612 S.o2        1 LIA       0.0385
     28 C28        -1.5668   32.8424   10.2552 C.3         1 LIA       0.0734
     29 O29        -3.8656   31.5157   10.9348 O.2         1 LIA      -0.1556
     30 O30        -2.9661   31.3019    8.5243 O.2         1 LIA      -0.1556
     31 H1         -1.0968   29.9670   12.4155 H           1 LIA       0.0479
     32 H2         -0.0589   30.7943   11.2496 H           1 LIA       0.0479
     33 H3          0.9456   28.6755   12.1243 H           1 LIA       0.0304
     34 H4          0.8304   28.7778   10.3656 H           1 LIA       0.0304
     35 H5         -1.0664   27.2721   12.2326 H           1 LIA       0.0563
     36 H6         -2.3001   26.5177   10.2440 H           1 LIA       0.0304
     37 H7         -1.2273   27.4304    9.1800 H           1 LIA       0.0304
     38 H8         -3.2193   28.7213    9.4659 H           1 LIA       0.0479
     39 H9         -3.1805   28.5671   11.2247 H           1 LIA       0.0479
     40 H10         0.2006   25.5603   11.9027 H           1 LIA       0.1881
     41 H11         2.4450   26.9347    7.3760 H           1 LIA       0.0904
     42 H12         8.6208   22.5101    8.4021 H           1 LIA       0.0605
     43 H13         7.0902   21.4387    6.8744 H           1 LIA       0.0512
     44 H14         3.1594   20.9602    6.0521 H           1 LIA       0.0579
     45 H15         3.0314   22.1639    7.3435 H           1 LIA       0.0579
     46 H16         4.1516   20.7762    7.5092 H           1 LIA       0.0579
     47 H17         3.1617   22.6812   10.5480 H           1 LIA       0.1831
     48 H18         4.0496   22.7741    9.1329 H           1 LIA       0.1831
     49 H19        -2.1529   33.7043    9.9427 H           1 LIA       0.0482
     50 H20        -0.6678   32.7779    9.6436 H           1 LIA       0.0482
     51 H21        -1.2875   32.9603   11.3015 H           1 LIA       0.0482
@<TRIPOS>BOND
     1     1     2   1
     2     1     6   1
     3     1    27  am
     4     2     3   1
     5     3     4   1
     6     4     5   1
     7     4     7   1
     8     5     6   1
     9     7     8   1
    10     8     9  ar
    11     8    13  ar
    12     9    10  ar
    13    10    11  ar
    14    11    12  ar
    15    11    14   1
    16    12    13  ar
    17    12    26   1
    18    14    15   2
    19    14    16   1
    20    16    17  ar
    21    16    21  ar
    22    17    18  ar
    23    17    24   1
    24    18    19  ar
    25    18    25   1
    26    19    20  ar
    27    20    21  ar
    28    21    22   1
    29    22    23   1
    30    27    28   1
    31    27    29   2
    32    27    30   2
    33     2    31   1
    34     2    32   1
    35     3    33   1
    36     3    34   1
    37     4    35   1
    38     5    36   1
    39     5    37   1
    40     6    38   1
    41     6    39   1
    42     7    40   1
    43    10    41   1
    44    19    42   1
    45    20    43   1
    46    23    44   1
    47    23    45   1
    48    23    46   1
    49    26    47   1
    50    26    48   1
    51    28    49   1
    52    28    50   1
    53    28    51   1
@<TRIPOS>SUBSTRUCTURE
     1  LIA      2

