@<TRIPOS>MOLECULE
2fvd_ligand_017
    51    53
SMALL
GAST_HUCK
****
This file was generated by PARSER (from files_GN.cpp)

@<TRIPOS>ATOM
      1 N1         -5.9208   20.4308   21.3239 N.am        1 LIA      -0.2385
      2 C2         -6.2796   19.4557   20.3255 C.3         1 LIA       0.0314
      3 C3         -5.3305   19.4627   19.0973 C.3         1 LIA      -0.0122
      4 C4         -5.0789   20.8987   18.5582 C.3         1 LIA       0.0456
      5 C5         -4.5713   21.7862   19.7309 C.3         1 LIA      -0.0122
      6 C6         -5.5727   21.7671   20.9131 C.3         1 LIA       0.0314
      7 N7         -4.1745   20.8253   17.4442 N.pl3       1 LIA      -0.2866
      8 C8         -3.7493   21.8637   16.6916 C.ar        1 LIA       0.1789
      9 N9         -3.0365   21.5865   15.5712 N.ar        1 LIA      -0.2656
     10 C10        -2.5591   22.5730   14.7695 C.ar        1 LIA       0.0186
     11 C11        -2.8292   23.9318   15.0558 C.ar        1 LIA       0.0852
     12 C12        -3.5876   24.1908   16.2279 C.ar        1 LIA       0.1302
     13 N13        -4.0178   23.1543   16.9887 N.ar        1 LIA      -0.2356
     14 C14        -2.4071   24.9268   14.1792 C.2         1 LIA       0.1492
     15 O15        -1.1838   24.9594   14.0464 O.2         1 LIA      -0.3856
     16 C16        -3.2506   25.7682   13.4159 C.ar        1 LIA       0.0920
     17 C17        -4.6559   25.5184   13.2961 C.ar        1 LIA       0.1766
     18 C18        -5.4920   26.3573   12.5322 C.ar        1 LIA       0.1591
     19 C19        -4.9468   27.4215   11.8073 C.ar        1 LIA      -0.0338
     20 C20        -3.5688   27.6664   11.8608 C.ar        1 LIA      -0.0322
     21 C21        -2.7236   26.8741   12.6700 C.ar        1 LIA       0.1052
     22 O22        -1.3655   27.0832   12.5719 O.3         1 LIA      -0.3192
     23 C23        -0.8557   28.4111   12.7803 C.3         1 LIA       0.0603
     24 F24        -5.2307   24.4547   13.7908 F           1 LIA      -0.1811
     25 F25        -6.7752   26.1171   12.4416 F           1 LIA      -0.1924
     26 N26        -3.9339   25.4135   16.6613 N.pl3       1 LIA      -0.3135
     27 S27        -6.4737   20.1866   22.9071 S.o2        1 LIA       0.0385
     28 C28        -5.2796   19.2984   23.9201 C.3         1 LIA       0.0734
     29 O29        -7.8578   19.3996   22.9124 O.2         1 LIA      -0.1556
     30 O30        -6.8242   21.5639   23.6201 O.2         1 LIA      -0.1556
     31 H1         -7.3015   19.6599   19.9953 H           1 LIA       0.0479
     32 H2         -6.2596   18.4470   20.7486 H           1 LIA       0.0479
     33 H3         -5.7610   18.8405   18.3065 H           1 LIA       0.0304
     34 H4         -4.3746   19.0130   19.3881 H           1 LIA       0.0304
     35 H5         -6.0275   21.3034   18.1934 H           1 LIA       0.0563
     36 H6         -4.4441   22.8220   19.4071 H           1 LIA       0.0304
     37 H7         -3.5957   21.4215   20.0707 H           1 LIA       0.0304
     38 H8         -5.1144   22.3246   21.7323 H           1 LIA       0.0479
     39 H9         -6.4862   22.2925   20.6214 H           1 LIA       0.0479
     40 H10        -3.9049   19.9451   17.1501 H           1 LIA       0.1881
     41 H11        -2.0337   22.3041   13.9313 H           1 LIA       0.0904
     42 H12        -5.5428   27.9924   11.2015 H           1 LIA       0.0605
     43 H13        -3.1806   28.4109   11.2787 H           1 LIA       0.0512
     44 H14         0.2224   28.3311   12.9136 H           1 LIA       0.0579
     45 H15        -1.2764   28.8811   13.6713 H           1 LIA       0.0579
     46 H16        -1.0449   29.0452   11.9114 H           1 LIA       0.0579
     47 H17        -4.4307   25.5070   17.4874 H           1 LIA       0.1831
     48 H18        -3.7109   26.2036   16.1469 H           1 LIA       0.1831
     49 H19        -5.6648   19.1858   24.9340 H           1 LIA       0.0482
     50 H20        -4.3455   19.8587   23.9471 H           1 LIA       0.0482
     51 H21        -5.0969   18.3136   23.4896 H           1 LIA       0.0482
@<TRIPOS>BOND
     1     1     2   1
     2     1     6   1
     3     1    27  am
     4     2     3   1
     5     3     4   1
     6     4     5   1
     7     4     7   1
     8     5     6   1
     9     7     8   1
    10     8     9  ar
    11     8    13  ar
    12     9    10  ar
    13    10    11  ar
    14    11    12  ar
    15    11    14   1
    16    12    13  ar
    17    12    26   1
    18    14    15   2
    19    14    16   1
    20    16    17  ar
    21    16    21  ar
    22    17    18  ar
    23    17    24   1
    24    18    19  ar
    25    18    25   1
    26    19    20  ar
    27    20    21  ar
    28    21    22   1
    29    22    23   1
    30    27    28   1
    31    27    29   2
    32    27    30   2
    33     2    31   1
    34     2    32   1
    35     3    33   1
    36     3    34   1
    37     4    35   1
    38     5    36   1
    39     5    37   1
    40     6    38   1
    41     6    39   1
    42     7    40   1
    43    10    41   1
    44    19    42   1
    45    20    43   1
    46    23    44   1
    47    23    45   1
    48    23    46   1
    49    26    47   1
    50    26    48   1
    51    28    49   1
    52    28    50   1
    53    28    51   1
@<TRIPOS>SUBSTRUCTURE
     1  LIA      2

