@<TRIPOS>MOLECULE
2fvd_ligand_047
    51    53
SMALL
GAST_HUCK
****
This file was generated by PARSER (from files_GN.cpp)

@<TRIPOS>ATOM
      1 N1         -4.0330   22.7873   15.7728 N.am        1 LIA      -0.2385
      2 C2         -4.1245   24.1636   15.3550 C.3         1 LIA       0.0314
      3 C3         -3.7534   24.3673   13.8634 C.3         1 LIA      -0.0122
      4 C4         -2.4192   23.6573   13.5059 C.3         1 LIA       0.0456
      5 C5         -2.4913   22.1669   13.9288 C.3         1 LIA      -0.0122
      6 C6         -2.8649   22.0173   15.4252 C.3         1 LIA       0.0314
      7 N7         -2.1556   23.7359   12.0985 N.pl3       1 LIA      -0.2866
      8 C8         -1.6622   24.8054   11.4390 C.ar        1 LIA       0.1789
      9 N9         -1.2834   25.9591   12.0505 N.ar        1 LIA      -0.2656
     10 C10        -0.7959   27.0162   11.3537 C.ar        1 LIA       0.0186
     11 C11        -0.6855   26.9535    9.9455 C.ar        1 LIA       0.0852
     12 C12        -1.0896   25.7435    9.3303 C.ar        1 LIA       0.1302
     13 N13        -1.5573   24.7210   10.0882 N.ar        1 LIA      -0.2356
     14 C14        -0.2478   28.0541    9.2260 C.2         1 LIA       0.1492
     15 O15         0.9648   28.0678    9.0575 O.2         1 LIA      -0.3856
     16 C16        -1.0757   29.1059    8.7533 C.ar        1 LIA       0.0920
     17 C17        -2.5061   29.0195    8.7893 C.ar        1 LIA       0.1766
     18 C18        -3.3179   30.0678    8.3123 C.ar        1 LIA       0.1591
     19 C19        -2.7332   31.2378    7.8136 C.ar        1 LIA      -0.0338
     20 C20        -1.3391   31.3663    7.7925 C.ar        1 LIA      -0.0322
     21 C21        -0.5100   30.3027    8.2075 C.ar        1 LIA       0.1052
     22 O22         0.8468   30.5091    8.1289 O.3         1 LIA      -0.3192
     23 C23         1.3860   30.4877    6.7912 C.3         1 LIA       0.0603
     24 F24        -3.1500   27.9796    9.2607 F           1 LIA      -0.1811
     25 F25        -4.6217   29.9688    8.3332 F           1 LIA      -0.1924
     26 N26        -1.0645   25.5559    7.9990 N.pl3       1 LIA      -0.3135
     27 S27        -4.9727   22.3163   17.1038 S.o2        1 LIA       0.0385
     28 C28        -4.9045   23.4521   18.5034 C.3         1 LIA       0.0734
     29 O29        -4.5466   20.8860   17.6576 O.2         1 LIA      -0.1556
     30 O30        -6.4697   22.1434   16.6020 O.2         1 LIA      -0.1556
     31 H1         -3.4550   24.7646   15.9771 H           1 LIA       0.0479
     32 H2         -5.1396   24.5502   15.4893 H           1 LIA       0.0479
     33 H3         -3.6682   25.4375   13.6584 H           1 LIA       0.0304
     34 H4         -4.5575   23.9666   13.2378 H           1 LIA       0.0304
     35 H5         -1.6021   24.1320   14.0588 H           1 LIA       0.0563
     36 H6         -1.5233   21.6870   13.7520 H           1 LIA       0.0304
     37 H7         -3.2408   21.6450   13.3233 H           1 LIA       0.0304
     38 H8         -3.0226   20.9536   15.6141 H           1 LIA       0.0479
     39 H9         -2.0261   22.3477   16.0420 H           1 LIA       0.0479
     40 H10        -2.3663   22.9540   11.5632 H           1 LIA       0.1881
     41 H11        -0.5323   27.8638   11.8637 H           1 LIA       0.0904
     42 H12        -3.3166   31.9968    7.4594 H           1 LIA       0.0605
     43 H13        -0.9287   32.2309    7.4364 H           1 LIA       0.0512
     44 H14         2.4686   30.6092    6.8555 H           1 LIA       0.0579
     45 H15         0.9943   31.3125    6.1925 H           1 LIA       0.0579
     46 H16         1.1768   29.5428    6.2829 H           1 LIA       0.0579
     47 H17        -1.3677   24.7129    7.6230 H           1 LIA       0.1831
     48 H18        -0.7646   26.2652    7.4100 H           1 LIA       0.1831
     49 H19        -5.5098   23.0610   19.3207 H           1 LIA       0.0482
     50 H20        -5.2885   24.4269   18.2050 H           1 LIA       0.0482
     51 H21        -3.8731   23.5568   18.8368 H           1 LIA       0.0482
@<TRIPOS>BOND
     1     1     2   1
     2     1     6   1
     3     1    27  am
     4     2     3   1
     5     3     4   1
     6     4     5   1
     7     4     7   1
     8     5     6   1
     9     7     8   1
    10     8     9  ar
    11     8    13  ar
    12     9    10  ar
    13    10    11  ar
    14    11    12  ar
    15    11    14   1
    16    12    13  ar
    17    12    26   1
    18    14    15   2
    19    14    16   1
    20    16    17  ar
    21    16    21  ar
    22    17    18  ar
    23    17    24   1
    24    18    19  ar
    25    18    25   1
    26    19    20  ar
    27    20    21  ar
    28    21    22   1
    29    22    23   1
    30    27    28   1
    31    27    29   2
    32    27    30   2
    33     2    31   1
    34     2    32   1
    35     3    33   1
    36     3    34   1
    37     4    35   1
    38     5    36   1
    39     5    37   1
    40     6    38   1
    41     6    39   1
    42     7    40   1
    43    10    41   1
    44    19    42   1
    45    20    43   1
    46    23    44   1
    47    23    45   1
    48    23    46   1
    49    26    47   1
    50    26    48   1
    51    28    49   1
    52    28    50   1
    53    28    51   1
@<TRIPOS>SUBSTRUCTURE
     1  LIA      2

