@<TRIPOS>MOLECULE
2fvd_ligand_072
    51    53
SMALL
GAST_HUCK
****
This file was generated by PARSER (from files_GN.cpp)

@<TRIPOS>ATOM
      1 N1         -0.9031   28.8756    8.2026 N.am        1 LIA      -0.2385
      2 C2         -0.6470   28.7798    6.7876 C.3         1 LIA       0.0314
      3 C3          0.6108   29.6156    6.4120 C.3         1 LIA      -0.0122
      4 C4          1.8469   29.2049    7.2701 C.3         1 LIA       0.0456
      5 C5          1.4508   29.2293    8.7831 C.3         1 LIA      -0.0122
      6 C6          0.1534   28.4298    9.0763 C.3         1 LIA       0.0314
      7 N7          2.3261   27.9381    6.7871 N.pl3       1 LIA      -0.2866
      8 C8          3.3973   27.2336    7.2111 C.ar        1 LIA       0.1789
      9 N9          4.1906   27.6052    8.2427 N.ar        1 LIA      -0.2656
     10 C10         5.1970   26.8206    8.6942 C.ar        1 LIA       0.0186
     11 C11         5.4464   25.5512    8.1084 C.ar        1 LIA       0.0852
     12 C12         4.6681   25.2358    6.9618 C.ar        1 LIA       0.1302
     13 N13         3.6681   26.0665    6.5736 N.ar        1 LIA      -0.2356
     14 C14         6.3888   24.6821    8.6678 C.2         1 LIA       0.1492
     15 O15         7.4211   25.2034    9.0827 O.2         1 LIA      -0.3856
     16 C16         6.1864   23.3052    8.9270 C.ar        1 LIA       0.0920
     17 C17         7.3148   22.4505    9.1069 C.ar        1 LIA       0.1766
     18 C18         7.1633   21.0923    9.4542 C.ar        1 LIA       0.1591
     19 C19         5.8802   20.5574    9.6371 C.ar        1 LIA      -0.0338
     20 C20         4.7547   21.3704    9.4596 C.ar        1 LIA      -0.0322
     21 C21         4.8832   22.7302    9.0826 C.ar        1 LIA       0.1052
     22 O22         3.7482   23.5076    8.9930 O.3         1 LIA      -0.3192
     23 C23         2.6881   23.0515    8.1290 C.3         1 LIA       0.0603
     24 F24         8.5383   22.8861    8.9327 F           1 LIA      -0.1811
     25 F25         8.2003   20.3159    9.6341 F           1 LIA      -0.1924
     26 N26         4.8787   24.1511    6.1963 N.pl3       1 LIA      -0.3135
     27 S27        -2.0816   29.9700    8.7493 S.o2        1 LIA       0.0385
     28 C28        -3.7470   29.5806    8.1745 C.3         1 LIA       0.0734
     29 O29        -1.7131   31.4575    8.3289 O.2         1 LIA      -0.1556
     30 O30        -2.1822   29.9808   10.3379 O.2         1 LIA      -0.1556
     31 H1         -1.4993   29.1126    6.1917 H           1 LIA       0.0479
     32 H2         -0.4766   27.7289    6.5317 H           1 LIA       0.0479
     33 H3          0.3953   30.6759    6.5771 H           1 LIA       0.0304
     34 H4          0.8264   29.4909    5.3459 H           1 LIA       0.0304
     35 H5          2.6388   29.9426    7.1034 H           1 LIA       0.0563
     36 H6          1.2850   30.2691    9.0781 H           1 LIA       0.0304
     37 H7          2.2561   28.8441    9.4055 H           1 LIA       0.0304
     38 H8          0.3351   27.3645    8.9053 H           1 LIA       0.0479
     39 H9         -0.1017   28.5397   10.1315 H           1 LIA       0.0479
     40 H10         1.8331   27.5422    6.0517 H           1 LIA       0.1881
     41 H11         5.7314   27.1481    9.5009 H           1 LIA       0.0904
     42 H12         5.7666   19.5747    9.9069 H           1 LIA       0.0605
     43 H13         3.8306   20.9630    9.6150 H           1 LIA       0.0512
     44 H14         2.0326   23.8975    7.9235 H           1 LIA       0.0579
     45 H15         2.0922   22.2765    8.6153 H           1 LIA       0.0579
     46 H16         3.0695   22.6727    7.1787 H           1 LIA       0.0579
     47 H17         4.3351   24.0002    5.4043 H           1 LIA       0.1831
     48 H18         5.5954   23.5323    6.4094 H           1 LIA       0.1831
     49 H19        -4.4541   30.3011    8.5869 H           1 LIA       0.0482
     50 H20        -4.0216   28.5777    8.5016 H           1 LIA       0.0482
     51 H21        -3.7808   29.6317    7.0860 H           1 LIA       0.0482
@<TRIPOS>BOND
     1     1     2   1
     2     1     6   1
     3     1    27  am
     4     2     3   1
     5     3     4   1
     6     4     5   1
     7     4     7   1
     8     5     6   1
     9     7     8   1
    10     8     9  ar
    11     8    13  ar
    12     9    10  ar
    13    10    11  ar
    14    11    12  ar
    15    11    14   1
    16    12    13  ar
    17    12    26   1
    18    14    15   2
    19    14    16   1
    20    16    17  ar
    21    16    21  ar
    22    17    18  ar
    23    17    24   1
    24    18    19  ar
    25    18    25   1
    26    19    20  ar
    27    20    21  ar
    28    21    22   1
    29    22    23   1
    30    27    28   1
    31    27    29   2
    32    27    30   2
    33     2    31   1
    34     2    32   1
    35     3    33   1
    36     3    34   1
    37     4    35   1
    38     5    36   1
    39     5    37   1
    40     6    38   1
    41     6    39   1
    42     7    40   1
    43    10    41   1
    44    19    42   1
    45    20    43   1
    46    23    44   1
    47    23    45   1
    48    23    46   1
    49    26    47   1
    50    26    48   1
    51    28    49   1
    52    28    50   1
    53    28    51   1
@<TRIPOS>SUBSTRUCTURE
     1  LIA      2

