@<TRIPOS>MOLECULE
2fvd_ligand_020
    51    53
SMALL
GAST_HUCK
****
This file was generated by PARSER (from files_GN.cpp)

@<TRIPOS>ATOM
      1 N1         -1.1161   30.1139   10.8188 N.am        1 LIA      -0.2385
      2 C2          0.3117   29.9197   10.7628 C.3         1 LIA       0.0314
      3 C3          0.6885   28.4607   11.1288 C.3         1 LIA      -0.0122
      4 C4          0.0607   28.0233   12.4861 C.3         1 LIA       0.0456
      5 C5         -1.4719   28.2827   12.4440 C.3         1 LIA      -0.0122
      6 C6         -1.8059   29.7412   12.0286 C.3         1 LIA       0.0314
      7 N7          0.2783   26.6797   12.9527 N.pl3       1 LIA      -0.2866
      8 C8          0.8208   25.6002   12.3394 C.ar        1 LIA       0.1789
      9 N9          0.8710   24.4370   13.0309 N.ar        1 LIA      -0.2656
     10 C10         1.4133   23.3105   12.5054 C.ar        1 LIA       0.0186
     11 C11         1.9688   23.2898   11.1990 C.ar        1 LIA       0.0852
     12 C12         1.8783   24.5203   10.4898 C.ar        1 LIA       0.1302
     13 N13         1.3214   25.6078   11.0797 N.ar        1 LIA      -0.2356
     14 C14         2.5902   22.1360   10.6813 C.2         1 LIA       0.1492
     15 O15         3.0512   22.1079    9.5472 O.2         1 LIA      -0.3856
     16 C16         2.8579   20.9998   11.4311 C.ar        1 LIA       0.0920
     17 C17         1.8702   19.9944   11.5976 C.ar        1 LIA       0.1766
     18 C18         2.1676   18.8274   12.3285 C.ar        1 LIA       0.1591
     19 C19         3.4462   18.6534   12.8839 C.ar        1 LIA      -0.0338
     20 C20         4.4241   19.6499   12.7311 C.ar        1 LIA      -0.0322
     21 C21         4.1358   20.8338   12.0264 C.ar        1 LIA       0.1052
     22 O22         5.1464   21.7518   11.8643 O.3         1 LIA      -0.3192
     23 C23         5.1569   22.8083   12.8446 C.3         1 LIA       0.0603
     24 F24         0.6730   20.1263   11.0815 F           1 LIA      -0.1811
     25 F25         1.2675   17.8942   12.4886 F           1 LIA      -0.1924
     26 N26         2.3339   24.7443    9.2432 N.pl3       1 LIA      -0.3135
     27 S27        -1.8244   31.2471    9.7816 S.o2        1 LIA       0.0385
     28 C28        -1.6196   32.9602   10.2996 C.3         1 LIA       0.0734
     29 O29        -3.3744   30.9384    9.5961 O.2         1 LIA      -0.1556
     30 O30        -1.2452   31.0612    8.3097 O.2         1 LIA      -0.1556
     31 H1          0.7966   30.6111   11.4576 H           1 LIA       0.0479
     32 H2          0.7091   30.1227    9.7644 H           1 LIA       0.0479
     33 H3          1.7780   28.3713   11.1778 H           1 LIA       0.0304
     34 H4          0.3196   27.8186   10.3268 H           1 LIA       0.0304
     35 H5          0.4929   28.6735   13.2574 H           1 LIA       0.0563
     36 H6         -1.9110   28.0794   13.4252 H           1 LIA       0.0304
     37 H7         -1.9336   27.5987   11.7256 H           1 LIA       0.0304
     38 H8         -2.8916   29.8179   11.9192 H           1 LIA       0.0479
     39 H9         -1.5084   30.4249   12.8279 H           1 LIA       0.0479
     40 H10        -0.0245   26.5315   13.8614 H           1 LIA       0.1881
     41 H11         1.4163   22.4769   13.0945 H           1 LIA       0.0904
     42 H12         3.6707   17.8007   13.4034 H           1 LIA       0.0605
     43 H13         5.3539   19.5118   13.1323 H           1 LIA       0.0512
     44 H14         6.0905   23.3648   12.7408 H           1 LIA       0.0579
     45 H15         5.1095   22.4299   13.8696 H           1 LIA       0.0579
     46 H16         4.3298   23.5010   12.6783 H           1 LIA       0.0579
     47 H17         2.2565   25.6310    8.8553 H           1 LIA       0.1831
     48 H18         2.7640   24.0398    8.7360 H           1 LIA       0.1831
     49 H19        -2.0357   33.6245    9.5429 H           1 LIA       0.0482
     50 H20        -0.5591   33.1759   10.4281 H           1 LIA       0.0482
     51 H21        -2.1394   33.1177   11.2448 H           1 LIA       0.0482
@<TRIPOS>BOND
     1     1     2   1
     2     1     6   1
     3     1    27  am
     4     2     3   1
     5     3     4   1
     6     4     5   1
     7     4     7   1
     8     5     6   1
     9     7     8   1
    10     8     9  ar
    11     8    13  ar
    12     9    10  ar
    13    10    11  ar
    14    11    12  ar
    15    11    14   1
    16    12    13  ar
    17    12    26   1
    18    14    15   2
    19    14    16   1
    20    16    17  ar
    21    16    21  ar
    22    17    18  ar
    23    17    24   1
    24    18    19  ar
    25    18    25   1
    26    19    20  ar
    27    20    21  ar
    28    21    22   1
    29    22    23   1
    30    27    28   1
    31    27    29   2
    32    27    30   2
    33     2    31   1
    34     2    32   1
    35     3    33   1
    36     3    34   1
    37     4    35   1
    38     5    36   1
    39     5    37   1
    40     6    38   1
    41     6    39   1
    42     7    40   1
    43    10    41   1
    44    19    42   1
    45    20    43   1
    46    23    44   1
    47    23    45   1
    48    23    46   1
    49    26    47   1
    50    26    48   1
    51    28    49   1
    52    28    50   1
    53    28    51   1
@<TRIPOS>SUBSTRUCTURE
     1  LIA      2

