@<TRIPOS>MOLECULE
2fvd_ligand_051
    51    53
SMALL
GAST_HUCK
****
This file was generated by PARSER (from files_GN.cpp)

@<TRIPOS>ATOM
      1 N1          1.1223   27.4899    7.7772 N.am        1 LIA      -0.2385
      2 C2          1.4744   28.3784    6.6941 C.3         1 LIA       0.0314
      3 C3          2.4157   29.5057    7.1991 C.3         1 LIA      -0.0122
      4 C4          3.6524   28.9402    7.9692 C.3         1 LIA       0.0456
      5 C5          3.1201   27.9951    9.1001 C.3         1 LIA      -0.0122
      6 C6          2.2049   26.8834    8.5100 C.3         1 LIA       0.0314
      7 N7          4.5961   28.4129    7.0126 N.pl3       1 LIA      -0.2866
      8 C8          5.2395   27.2197    6.9753 C.ar        1 LIA       0.1789
      9 N9          5.1236   26.2653    7.9315 N.ar        1 LIA      -0.2656
     10 C10         5.7261   25.0554    7.8352 C.ar        1 LIA       0.0186
     11 C11         6.5078   24.7180    6.7031 C.ar        1 LIA       0.0852
     12 C12         6.6687   25.7584    5.7435 C.ar        1 LIA       0.1302
     13 N13         6.0271   26.9456    5.9047 N.ar        1 LIA      -0.2356
     14 C14         7.0691   23.4350    6.5815 C.2         1 LIA       0.1492
     15 O15         8.0960   23.2982    5.9282 O.2         1 LIA      -0.3856
     16 C16         6.5310   22.2822    7.1709 C.ar        1 LIA       0.0920
     17 C17         5.1735   21.9206    6.9500 C.ar        1 LIA       0.1766
     18 C18         4.6192   20.7836    7.5772 C.ar        1 LIA       0.1591
     19 C19         5.4125   19.9922    8.4233 C.ar        1 LIA      -0.0338
     20 C20         6.7589   20.3256    8.6371 C.ar        1 LIA      -0.0322
     21 C21         7.3299   21.4505    8.0040 C.ar        1 LIA       0.1052
     22 O22         8.6231   21.7856    8.3208 O.3         1 LIA      -0.3192
     23 C23         9.6263   21.0551    7.5921 C.3         1 LIA       0.0603
     24 F24         4.4088   22.6240    6.1531 F           1 LIA      -0.1811
     25 F25         3.3700   20.4491    7.3860 F           1 LIA      -0.1924
     26 N26         7.4043   25.6519    4.6229 N.pl3       1 LIA      -0.3135
     27 S27        -0.3997   27.5960    8.5162 S.o2        1 LIA       0.0385
     28 C28        -0.3338   27.9099   10.2898 C.3         1 LIA       0.0734
     29 O29        -1.1917   26.2385    8.2724 O.2         1 LIA      -0.1556
     30 O30        -1.3101   28.7063    7.8311 O.2         1 LIA      -0.1556
     31 H1          0.5980   28.8349    6.2241 H           1 LIA       0.0479
     32 H2          1.9913   27.8076    5.9189 H           1 LIA       0.0479
     33 H3          1.8422   30.1561    7.8659 H           1 LIA       0.0304
     34 H4          2.7369   30.1157    6.3521 H           1 LIA       0.0304
     35 H5          4.1554   29.7895    8.4384 H           1 LIA       0.0563
     36 H6          2.5351   28.5908    9.8087 H           1 LIA       0.0304
     37 H7          3.9372   27.5596    9.6777 H           1 LIA       0.0304
     38 H8          2.7815   26.2555    7.8269 H           1 LIA       0.0479
     39 H9          1.8484   26.2340    9.3140 H           1 LIA       0.0479
     40 H10         4.8238   29.0308    6.2993 H           1 LIA       0.1881
     41 H11         5.5955   24.3941    8.6053 H           1 LIA       0.0904
     42 H12         5.0126   19.1721    8.8895 H           1 LIA       0.0605
     43 H13         7.3210   19.7502    9.2679 H           1 LIA       0.0512
     44 H14        10.6080   21.3846    7.9352 H           1 LIA       0.0579
     45 H15         9.5577   21.2475    6.5185 H           1 LIA       0.0579
     46 H16         9.5472   19.9793    7.7716 H           1 LIA       0.0579
     47 H17         7.4719   26.4082    4.0171 H           1 LIA       0.1831
     48 H18         7.8783   24.8318    4.4200 H           1 LIA       0.1831
     49 H19        -1.3465   28.0028   10.6797 H           1 LIA       0.0482
     50 H20         0.2188   28.8294   10.4817 H           1 LIA       0.0482
     51 H21         0.1660   27.0781   10.7879 H           1 LIA       0.0482
@<TRIPOS>BOND
     1     1     2   1
     2     1     6   1
     3     1    27  am
     4     2     3   1
     5     3     4   1
     6     4     5   1
     7     4     7   1
     8     5     6   1
     9     7     8   1
    10     8     9  ar
    11     8    13  ar
    12     9    10  ar
    13    10    11  ar
    14    11    12  ar
    15    11    14   1
    16    12    13  ar
    17    12    26   1
    18    14    15   2
    19    14    16   1
    20    16    17  ar
    21    16    21  ar
    22    17    18  ar
    23    17    24   1
    24    18    19  ar
    25    18    25   1
    26    19    20  ar
    27    20    21  ar
    28    21    22   1
    29    22    23   1
    30    27    28   1
    31    27    29   2
    32    27    30   2
    33     2    31   1
    34     2    32   1
    35     3    33   1
    36     3    34   1
    37     4    35   1
    38     5    36   1
    39     5    37   1
    40     6    38   1
    41     6    39   1
    42     7    40   1
    43    10    41   1
    44    19    42   1
    45    20    43   1
    46    23    44   1
    47    23    45   1
    48    23    46   1
    49    26    47   1
    50    26    48   1
    51    28    49   1
    52    28    50   1
    53    28    51   1
@<TRIPOS>SUBSTRUCTURE
     1  LIA      2

