@<TRIPOS>MOLECULE
2fvd_ligand_002
    51    53
SMALL
GAST_HUCK
****
This file was generated by PARSER (from files_GN.cpp)

@<TRIPOS>ATOM
      1 N1          5.4410   25.7998    7.3279 N.am        1 LIA      -0.2385
      2 C2          4.0046   25.6681    7.4317 C.3         1 LIA       0.0314
      3 C3          3.2540   26.9447    6.9675 C.3         1 LIA      -0.0122
      4 C4          3.8435   28.2181    7.6357 C.3         1 LIA       0.0456
      5 C5          5.3662   28.2894    7.3508 C.3         1 LIA      -0.0122
      6 C6          6.0709   26.9968    7.8316 C.3         1 LIA       0.0314
      7 N7          3.1948   29.4017    7.1570 N.pl3       1 LIA      -0.2866
      8 C8          2.1409   30.0203    7.7444 C.ar        1 LIA       0.1789
      9 N9          1.5728   31.0817    7.1302 N.ar        1 LIA      -0.2656
     10 C10         0.4706   31.6938    7.6325 C.ar        1 LIA       0.0186
     11 C11        -0.1470   31.2281    8.8226 C.ar        1 LIA       0.0852
     12 C12         0.5192   30.1666    9.4874 C.ar        1 LIA       0.1302
     13 N13         1.6164   29.5936    8.9217 N.ar        1 LIA      -0.2356
     14 C14        -1.3517   31.7873    9.2729 C.2         1 LIA       0.1492
     15 O15        -1.5110   32.9841    9.0443 O.2         1 LIA      -0.3856
     16 C16        -2.4091   31.0930    9.8996 C.ar        1 LIA       0.0920
     17 C17        -3.2533   31.7732   10.8311 C.ar        1 LIA       0.1766
     18 C18        -4.3434   31.1219   11.4421 C.ar        1 LIA       0.1591
     19 C19        -4.6374   29.7908   11.1199 C.ar        1 LIA      -0.0338
     20 C20        -3.8361   29.1052   10.1929 C.ar        1 LIA      -0.0322
     21 C21        -2.7090   29.7282    9.6020 C.ar        1 LIA       0.1052
     22 O22        -1.9992   29.0468    8.6334 O.3         1 LIA      -0.3192
     23 C23        -1.4482   27.7575    8.9809 C.3         1 LIA       0.0603
     24 F24        -3.0406   33.0197   11.1715 F           1 LIA      -0.1811
     25 F25        -5.1029   31.7446   12.3073 F           1 LIA      -0.1924
     26 N26         0.1591   29.6785   10.6838 N.pl3       1 LIA      -0.3135
     27 S27         6.3846   24.3928    7.2996 S.o2        1 LIA       0.0385
     28 C28         7.0189   23.8849    8.9091 C.3         1 LIA       0.0734
     29 O29         7.6024   24.6091    6.2959 O.2         1 LIA      -0.1556
     30 O30         5.5884   23.1696    6.6697 O.2         1 LIA      -0.1556
     31 H1          3.7459   25.4574    8.4731 H           1 LIA       0.0479
     32 H2          3.6414   24.8350    6.8239 H           1 LIA       0.0479
     33 H3          2.1945   26.8541    7.2228 H           1 LIA       0.0304
     34 H4          3.3318   27.0296    5.8790 H           1 LIA       0.0304
     35 H5          3.7140   28.1335    8.7211 H           1 LIA       0.0563
     36 H6          5.7918   29.1518    7.8697 H           1 LIA       0.0304
     37 H7          5.5402   28.4185    6.2779 H           1 LIA       0.0304
     38 H8          7.1153   27.0534    7.5140 H           1 LIA       0.0479
     39 H9          6.0547   26.9656    8.9238 H           1 LIA       0.0479
     40 H10         3.5328   29.7908    6.3332 H           1 LIA       0.1881
     41 H11         0.0758   32.4718    7.1011 H           1 LIA       0.0904
     42 H12        -5.4370   29.3206   11.5503 H           1 LIA       0.0605
     43 H13        -4.0909   28.1477    9.9441 H           1 LIA       0.0512
     44 H14        -0.7033   27.4866    8.2287 H           1 LIA       0.0579
     45 H15        -2.2175   26.9810    8.9835 H           1 LIA       0.0579
     46 H16        -0.9587   27.7740    9.9606 H           1 LIA       0.0579
     47 H17         0.6653   28.9529   11.0858 H           1 LIA       0.1831
     48 H18        -0.5764   30.0767   11.1781 H           1 LIA       0.1831
     49 H19         7.6334   22.9918    8.7963 H           1 LIA       0.0482
     50 H20         6.1817   23.6646    9.5718 H           1 LIA       0.0482
     51 H21         7.6215   24.6852    9.3391 H           1 LIA       0.0482
@<TRIPOS>BOND
     1     1     2   1
     2     1     6   1
     3     1    27  am
     4     2     3   1
     5     3     4   1
     6     4     5   1
     7     4     7   1
     8     5     6   1
     9     7     8   1
    10     8     9  ar
    11     8    13  ar
    12     9    10  ar
    13    10    11  ar
    14    11    12  ar
    15    11    14   1
    16    12    13  ar
    17    12    26   1
    18    14    15   2
    19    14    16   1
    20    16    17  ar
    21    16    21  ar
    22    17    18  ar
    23    17    24   1
    24    18    19  ar
    25    18    25   1
    26    19    20  ar
    27    20    21  ar
    28    21    22   1
    29    22    23   1
    30    27    28   1
    31    27    29   2
    32    27    30   2
    33     2    31   1
    34     2    32   1
    35     3    33   1
    36     3    34   1
    37     4    35   1
    38     5    36   1
    39     5    37   1
    40     6    38   1
    41     6    39   1
    42     7    40   1
    43    10    41   1
    44    19    42   1
    45    20    43   1
    46    23    44   1
    47    23    45   1
    48    23    46   1
    49    26    47   1
    50    26    48   1
    51    28    49   1
    52    28    50   1
    53    28    51   1
@<TRIPOS>SUBSTRUCTURE
     1  LIA      2

