@<TRIPOS>MOLECULE
2fvd_ligand_009
    51    53
SMALL
GAST_HUCK
****
This file was generated by PARSER (from files_GN.cpp)

@<TRIPOS>ATOM
      1 N1         -5.0765   23.8330   14.8141 N.am        1 LIA      -0.2385
      2 C2         -3.9917   23.7717   13.8659 C.3         1 LIA       0.0314
      3 C3         -3.8714   25.0937   13.0705 C.3         1 LIA      -0.0122
      4 C4         -5.2272   25.4890   12.4105 C.3         1 LIA       0.0456
      5 C5         -6.3299   25.5542   13.5015 C.3         1 LIA      -0.0122
      6 C6         -6.3811   24.2621   14.3640 C.3         1 LIA       0.0314
      7 N7         -5.2774   26.6819   11.6014 N.pl3       1 LIA      -0.2866
      8 C8         -4.3932   27.7029   11.4861 C.ar        1 LIA       0.1789
      9 N9         -3.2911   27.8417   12.2666 N.ar        1 LIA      -0.2656
     10 C10        -2.4014   28.8497   12.1061 C.ar        1 LIA       0.0186
     11 C11        -2.5719   29.7908   11.0672 C.ar        1 LIA       0.0852
     12 C12        -3.7634   29.6791   10.3067 C.ar        1 LIA       0.1302
     13 N13        -4.6205   28.6478   10.5342 N.ar        1 LIA      -0.2356
     14 C14        -1.6325   30.7955   10.8722 C.2         1 LIA       0.1492
     15 O15        -1.9122   31.8851   11.3572 O.2         1 LIA      -0.3856
     16 C16        -0.6397   30.7034    9.8834 C.ar        1 LIA       0.0920
     17 C17        -0.4700   31.7384    8.9203 C.ar        1 LIA       0.1766
     18 C18         0.5220   31.6447    7.9208 C.ar        1 LIA       0.1591
     19 C19         1.3585   30.5179    7.8612 C.ar        1 LIA      -0.0338
     20 C20         1.2205   29.4943    8.8112 C.ar        1 LIA      -0.0322
     21 C21         0.2443   29.5872    9.8280 C.ar        1 LIA       0.1052
     22 O22         0.1930   28.5653   10.7407 O.3         1 LIA      -0.3192
     23 C23         1.0402   28.7717   11.8864 C.3         1 LIA       0.0603
     24 F24        -1.2462   32.7931    8.9070 F           1 LIA      -0.1811
     25 F25         0.6707   32.5906    7.0314 F           1 LIA      -0.1924
     26 N26        -4.1067   30.5746    9.3635 N.pl3       1 LIA      -0.3135
     27 S27        -4.9218   22.9297   16.2414 S.o2        1 LIA       0.0385
     28 C28        -4.5452   21.1811   16.0042 C.3         1 LIA       0.0734
     29 O29        -6.2086   23.0424   17.1707 O.2         1 LIA      -0.1556
     30 O30        -3.7464   23.5674   17.1006 O.2         1 LIA      -0.1556
     31 H1         -4.1605   22.9387   13.1787 H           1 LIA       0.0479
     32 H2         -3.0335   23.5945   14.3654 H           1 LIA       0.0479
     33 H3         -3.0997   24.9857   12.3032 H           1 LIA       0.0304
     34 H4         -3.5548   25.8654   13.7754 H           1 LIA       0.0304
     35 H5         -5.4856   24.6724   11.7267 H           1 LIA       0.0563
     36 H6         -7.3051   25.7044   13.0301 H           1 LIA       0.0304
     37 H7         -6.1382   26.4119   14.1519 H           1 LIA       0.0304
     38 H8         -7.0454   24.4650   15.2081 H           1 LIA       0.0479
     39 H9         -6.8326   23.4599   13.7756 H           1 LIA       0.0479
     40 H10        -6.0600   26.7495   11.0293 H           1 LIA       0.1881
     41 H11        -1.6006   28.9054   12.7411 H           1 LIA       0.0904
     42 H12         2.0754   30.4459    7.1334 H           1 LIA       0.0605
     43 H13         1.8449   28.6850    8.7692 H           1 LIA       0.0512
     44 H14         0.9171   27.9203   12.5565 H           1 LIA       0.0579
     45 H15         0.7706   29.6774   12.4364 H           1 LIA       0.0579
     46 H16         2.0917   28.8253   11.5937 H           1 LIA       0.0579
     47 H17        -4.9498   30.4816    8.8906 H           1 LIA       0.1831
     48 H18        -3.5324   31.3368    9.1881 H           1 LIA       0.1831
     49 H19        -4.4759   20.6888   16.9748 H           1 LIA       0.0482
     50 H20        -3.5922   21.0809   15.4832 H           1 LIA       0.0482
     51 H21        -5.3288   20.7070   15.4149 H           1 LIA       0.0482
@<TRIPOS>BOND
     1     1     2   1
     2     1     6   1
     3     1    27  am
     4     2     3   1
     5     3     4   1
     6     4     5   1
     7     4     7   1
     8     5     6   1
     9     7     8   1
    10     8     9  ar
    11     8    13  ar
    12     9    10  ar
    13    10    11  ar
    14    11    12  ar
    15    11    14   1
    16    12    13  ar
    17    12    26   1
    18    14    15   2
    19    14    16   1
    20    16    17  ar
    21    16    21  ar
    22    17    18  ar
    23    17    24   1
    24    18    19  ar
    25    18    25   1
    26    19    20  ar
    27    20    21  ar
    28    21    22   1
    29    22    23   1
    30    27    28   1
    31    27    29   2
    32    27    30   2
    33     2    31   1
    34     2    32   1
    35     3    33   1
    36     3    34   1
    37     4    35   1
    38     5    36   1
    39     5    37   1
    40     6    38   1
    41     6    39   1
    42     7    40   1
    43    10    41   1
    44    19    42   1
    45    20    43   1
    46    23    44   1
    47    23    45   1
    48    23    46   1
    49    26    47   1
    50    26    48   1
    51    28    49   1
    52    28    50   1
    53    28    51   1
@<TRIPOS>SUBSTRUCTURE
     1  LIA      2

