@<TRIPOS>MOLECULE
2fvd_ligand_069
    51    53
SMALL
GAST_HUCK
****
This file was generated by PARSER (from files_GN.cpp)

@<TRIPOS>ATOM
      1 N1         -7.0000   25.8679   17.1417 N.am        1 LIA      -0.2385
      2 C2         -5.8473   25.2555   17.7635 C.3         1 LIA       0.0314
      3 C3         -4.8452   24.7363   16.6991 C.3         1 LIA      -0.0122
      4 C4         -5.5533   23.8553   15.6298 C.3         1 LIA       0.0456
      5 C5         -6.7897   24.5909   15.0373 C.3         1 LIA      -0.0122
      6 C6         -7.7293   25.1120   16.1519 C.3         1 LIA       0.0314
      7 N7         -4.6909   23.3586   14.5901 N.pl3       1 LIA      -0.2866
      8 C8         -4.0251   24.0768   13.6567 C.ar        1 LIA       0.1789
      9 N9         -3.9557   25.4264   13.6672 N.ar        1 LIA      -0.2656
     10 C10        -3.2984   26.1246   12.7148 C.ar        1 LIA       0.0186
     11 C11        -2.6795   25.4727   11.6172 C.ar        1 LIA       0.0852
     12 C12        -2.7584   24.0488   11.6417 C.ar        1 LIA       0.1302
     13 N13        -3.4097   23.4125   12.6486 N.ar        1 LIA      -0.2356
     14 C14        -2.0502   26.2129   10.5962 C.2         1 LIA       0.1492
     15 O15        -1.6909   25.6858    9.5515 O.2         1 LIA      -0.3856
     16 C16        -1.7455   27.5649   10.6821 C.ar        1 LIA       0.0920
     17 C17        -0.5160   27.9703   11.2622 C.ar        1 LIA       0.1766
     18 C18        -0.1881   29.3367   11.3491 C.ar        1 LIA       0.1591
     19 C19        -1.0768   30.3082   10.8536 C.ar        1 LIA      -0.0338
     20 C20        -2.2877   29.9113   10.2640 C.ar        1 LIA      -0.0322
     21 C21        -2.6479   28.5480   10.1935 C.ar        1 LIA       0.1052
     22 O22        -3.8155   28.1688    9.5714 O.3         1 LIA      -0.3192
     23 C23        -5.0189   28.2981   10.3538 C.3         1 LIA       0.0603
     24 F24         0.3319   27.0894   11.7394 F           1 LIA      -0.1811
     25 F25         0.9450   29.7190   11.8763 F           1 LIA      -0.1924
     26 N26        -2.2291   23.2247   10.7134 N.pl3       1 LIA      -0.3135
     27 S27        -7.7824   27.1759   17.8840 S.o2        1 LIA       0.0385
     28 C28        -8.2132   28.4797   16.7146 C.3         1 LIA       0.0734
     29 O29        -6.8454   27.8809   18.9611 O.2         1 LIA      -0.1556
     30 O30        -9.0838   26.6835   18.6551 O.2         1 LIA      -0.1556
     31 H1         -6.1810   24.4228   18.3892 H           1 LIA       0.0479
     32 H2         -5.3077   25.9549   18.4049 H           1 LIA       0.0479
     33 H3         -4.0570   24.1591   17.1899 H           1 LIA       0.0304
     34 H4         -4.3798   25.6042   16.2320 H           1 LIA       0.0304
     35 H5         -5.9282   22.9667   16.1480 H           1 LIA       0.0563
     36 H6         -7.3446   23.9130   14.3844 H           1 LIA       0.0304
     37 H7         -6.4651   25.4454   14.4377 H           1 LIA       0.0304
     38 H8         -8.5069   25.7119   15.6697 H           1 LIA       0.0479
     39 H9         -8.2229   24.2657   16.6372 H           1 LIA       0.0479
     40 H10        -4.6305   22.3919   14.5098 H           1 LIA       0.1881
     41 H11        -3.2825   27.1389   12.8152 H           1 LIA       0.0904
     42 H12        -0.8444   31.3008   10.9159 H           1 LIA       0.0605
     43 H13        -2.9115   30.6263    9.8866 H           1 LIA       0.0512
     44 H14        -5.8497   27.8925    9.7745 H           1 LIA       0.0579
     45 H15        -5.2420   29.3438   10.5718 H           1 LIA       0.0579
     46 H16        -4.9528   27.7425   11.2907 H           1 LIA       0.0579
     47 H17        -2.3395   22.2637   10.8033 H           1 LIA       0.1831
     48 H18        -1.7421   23.5734    9.9506 H           1 LIA       0.1831
     49 H19        -8.5807   29.3524   17.2554 H           1 LIA       0.0482
     50 H20        -8.9942   28.1282   16.0405 H           1 LIA       0.0482
     51 H21        -7.3327   28.7567   16.1324 H           1 LIA       0.0482
@<TRIPOS>BOND
     1     1     2   1
     2     1     6   1
     3     1    27  am
     4     2     3   1
     5     3     4   1
     6     4     5   1
     7     4     7   1
     8     5     6   1
     9     7     8   1
    10     8     9  ar
    11     8    13  ar
    12     9    10  ar
    13    10    11  ar
    14    11    12  ar
    15    11    14   1
    16    12    13  ar
    17    12    26   1
    18    14    15   2
    19    14    16   1
    20    16    17  ar
    21    16    21  ar
    22    17    18  ar
    23    17    24   1
    24    18    19  ar
    25    18    25   1
    26    19    20  ar
    27    20    21  ar
    28    21    22   1
    29    22    23   1
    30    27    28   1
    31    27    29   2
    32    27    30   2
    33     2    31   1
    34     2    32   1
    35     3    33   1
    36     3    34   1
    37     4    35   1
    38     5    36   1
    39     5    37   1
    40     6    38   1
    41     6    39   1
    42     7    40   1
    43    10    41   1
    44    19    42   1
    45    20    43   1
    46    23    44   1
    47    23    45   1
    48    23    46   1
    49    26    47   1
    50    26    48   1
    51    28    49   1
    52    28    50   1
    53    28    51   1
@<TRIPOS>SUBSTRUCTURE
     1  LIA      2

