@<TRIPOS>MOLECULE
2fvd_ligand_079
    51    53
SMALL
GAST_HUCK
****
This file was generated by PARSER (from files_GN.cpp)

@<TRIPOS>ATOM
      1 N1         -6.2596   23.3391   16.2050 N.am        1 LIA      -0.2385
      2 C2         -5.6513   24.0930   15.1392 C.3         1 LIA       0.0314
      3 C3         -4.4731   23.3372   14.4924 C.3         1 LIA      -0.0122
      4 C4         -3.4230   22.8563   15.5380 C.3         1 LIA       0.0456
      5 C5         -4.1678   22.0533   16.6450 C.3         1 LIA      -0.0122
      6 C6         -5.3927   22.8114   17.2315 C.3         1 LIA       0.0314
      7 N7         -2.3932   22.0136   14.9736 N.pl3       1 LIA      -0.2866
      8 C8         -1.6989   22.1875   13.8275 C.ar        1 LIA       0.1789
      9 N9         -1.7996   23.2991   13.0643 N.ar        1 LIA      -0.2656
     10 C10        -1.1626   23.4297   11.8691 C.ar        1 LIA       0.0186
     11 C11        -0.3752   22.3686   11.3753 C.ar        1 LIA       0.0852
     12 C12        -0.2324   21.2301   12.2044 C.ar        1 LIA       0.1302
     13 N13        -0.8919   21.1778   13.3922 N.ar        1 LIA      -0.2356
     14 C14         0.1909   22.4471   10.1208 C.2         1 LIA       0.1492
     15 O15        -0.3142   21.7934    9.2192 O.2         1 LIA      -0.3856
     16 C16         1.1420   23.3995    9.8129 C.ar        1 LIA       0.0920
     17 C17         0.7998   24.5793    9.1039 C.ar        1 LIA       0.1766
     18 C18         1.7941   25.5294    8.7883 C.ar        1 LIA       0.1591
     19 C19         3.1364   25.2801    9.1216 C.ar        1 LIA      -0.0338
     20 C20         3.4839   24.1001    9.8026 C.ar        1 LIA      -0.0322
     21 C21         2.4894   23.1794   10.1968 C.ar        1 LIA       0.1052
     22 O22         2.8695   22.0350   10.8604 O.3         1 LIA      -0.3192
     23 C23         3.1292   22.2233   12.2630 C.3         1 LIA       0.0603
     24 F24        -0.4375   24.8226    8.7450 F           1 LIA      -0.1811
     25 F25         1.4861   26.6371    8.1704 F           1 LIA      -0.1924
     26 N26         0.5458   20.1868   11.8796 N.pl3       1 LIA      -0.3135
     27 S27        -7.8497   23.7594   16.6013 S.o2        1 LIA       0.0385
     28 C28        -8.0535   25.4658   17.1382 C.3         1 LIA       0.0734
     29 O29        -8.5141   22.7592   17.6481 O.2         1 LIA      -0.1556
     30 O30        -8.7209   23.5512   15.2858 O.2         1 LIA      -0.1556
     31 H1         -5.2882   25.0477   15.5357 H           1 LIA       0.0479
     32 H2         -6.3649   24.3126   14.3405 H           1 LIA       0.0479
     33 H3         -4.0207   24.0297   13.7846 H           1 LIA       0.0304
     34 H4         -4.8429   22.4726   13.9387 H           1 LIA       0.0304
     35 H5         -2.9500   23.7330   15.9863 H           1 LIA       0.0563
     36 H6         -3.4725   21.8167   17.4547 H           1 LIA       0.0304
     37 H7         -4.5196   21.1052   16.2233 H           1 LIA       0.0304
     38 H8         -5.9356   22.1171   17.8738 H           1 LIA       0.0479
     39 H9         -5.0377   23.6380   17.8538 H           1 LIA       0.0479
     40 H10        -2.1937   21.1973   15.4623 H           1 LIA       0.1881
     41 H11        -1.3040   24.2921   11.3402 H           1 LIA       0.0904
     42 H12         3.8634   25.9453    8.8652 H           1 LIA       0.0605
     43 H13         4.4634   23.9115   10.0180 H           1 LIA       0.0512
     44 H14         3.3651   21.2521   12.6987 H           1 LIA       0.0579
     45 H15         2.2607   22.6278   12.7898 H           1 LIA       0.0579
     46 H16         3.9829   22.8841   12.4252 H           1 LIA       0.0579
     47 H17         0.6424   19.4396   12.4871 H           1 LIA       0.1831
     48 H18         1.0276   20.1869   11.0338 H           1 LIA       0.1831
     49 H19        -9.1051   25.6774   17.3327 H           1 LIA       0.0482
     50 H20        -7.6937   26.1311   16.3509 H           1 LIA       0.0482
     51 H21        -7.4739   25.6360   18.0467 H           1 LIA       0.0482
@<TRIPOS>BOND
     1     1     2   1
     2     1     6   1
     3     1    27  am
     4     2     3   1
     5     3     4   1
     6     4     5   1
     7     4     7   1
     8     5     6   1
     9     7     8   1
    10     8     9  ar
    11     8    13  ar
    12     9    10  ar
    13    10    11  ar
    14    11    12  ar
    15    11    14   1
    16    12    13  ar
    17    12    26   1
    18    14    15   2
    19    14    16   1
    20    16    17  ar
    21    16    21  ar
    22    17    18  ar
    23    17    24   1
    24    18    19  ar
    25    18    25   1
    26    19    20  ar
    27    20    21  ar
    28    21    22   1
    29    22    23   1
    30    27    28   1
    31    27    29   2
    32    27    30   2
    33     2    31   1
    34     2    32   1
    35     3    33   1
    36     3    34   1
    37     4    35   1
    38     5    36   1
    39     5    37   1
    40     6    38   1
    41     6    39   1
    42     7    40   1
    43    10    41   1
    44    19    42   1
    45    20    43   1
    46    23    44   1
    47    23    45   1
    48    23    46   1
    49    26    47   1
    50    26    48   1
    51    28    49   1
    52    28    50   1
    53    28    51   1
@<TRIPOS>SUBSTRUCTURE
     1  LIA      2

