@<TRIPOS>MOLECULE
2fvd_ligand_067
    51    53
SMALL
GAST_HUCK
****
This file was generated by PARSER (from files_GN.cpp)

@<TRIPOS>ATOM
      1 N1          0.8351   29.3996    7.2541 N.am        1 LIA      -0.2385
      2 C2          2.1185   29.6088    6.6288 C.3         1 LIA       0.0314
      3 C3          3.2507   29.1891    7.6042 C.3         1 LIA      -0.0122
      4 C4          3.0486   27.7354    8.1255 C.3         1 LIA       0.0456
      5 C5          1.6038   27.5399    8.6731 C.3         1 LIA      -0.0122
      6 C6          0.5229   28.0563    7.6834 C.3         1 LIA       0.0314
      7 N7          3.2896   26.7999    7.0611 N.pl3       1 LIA      -0.2866
      8 C8          4.2297   25.8275    7.0307 C.ar        1 LIA       0.1789
      9 N9          5.1190   25.6266    8.0370 N.ar        1 LIA      -0.2656
     10 C10         6.0597   24.6534    7.9848 C.ar        1 LIA       0.0186
     11 C11         6.1341   23.7859    6.8741 C.ar        1 LIA       0.0852
     12 C12         5.2196   24.0361    5.8191 C.ar        1 LIA       0.1302
     13 N13         4.3013   25.0319    5.9345 N.ar        1 LIA      -0.2356
     14 C14         7.1187   22.8083    6.8070 C.2         1 LIA       0.1492
     15 O15         8.0717   23.0343    6.0731 O.2         1 LIA      -0.3856
     16 C16         6.8776   21.4900    7.2034 C.ar        1 LIA       0.0920
     17 C17         6.9583   20.4219    6.2682 C.ar        1 LIA       0.1766
     18 C18         6.7415   19.0890    6.6722 C.ar        1 LIA       0.1591
     19 C19         6.4574   18.7992    8.0161 C.ar        1 LIA      -0.0338
     20 C20         6.3924   19.8377    8.9577 C.ar        1 LIA      -0.0322
     21 C21         6.6132   21.1770    8.5647 C.ar        1 LIA       0.1052
     22 O22         6.5688   22.1439    9.5351 O.3         1 LIA      -0.3192
     23 C23         7.8613   22.4723   10.0855 C.3         1 LIA       0.0603
     24 F24         7.2123   20.6392    5.0031 F           1 LIA      -0.1811
     25 F25         6.7960   18.1154    5.8036 F           1 LIA      -0.1924
     26 N26         5.2283   23.3456    4.6666 N.pl3       1 LIA      -0.3135
     27 S27         0.0103   30.6921    7.9781 S.o2        1 LIA       0.0385
     28 C28         0.4167   32.3568    7.4093 C.3         1 LIA       0.0734
     29 O29         0.1980   30.6509    9.5570 O.2         1 LIA      -0.1556
     30 O30        -1.5420   30.5102    7.6853 O.2         1 LIA      -0.1556
     31 H1          2.2726   30.6442    6.3170 H           1 LIA       0.0479
     32 H2          2.1756   28.9979    5.7235 H           1 LIA       0.0479
     33 H3          3.2593   29.8814    8.4518 H           1 LIA       0.0304
     34 H4          4.2177   29.2734    7.1034 H           1 LIA       0.0304
     35 H5          3.7445   27.5798    8.9566 H           1 LIA       0.0563
     36 H6          1.5033   28.0861    9.6153 H           1 LIA       0.0304
     37 H7          1.4284   26.4822    8.8874 H           1 LIA       0.0304
     38 H8          0.4868   27.4020    6.8103 H           1 LIA       0.0479
     39 H9         -0.4586   27.9902    8.1599 H           1 LIA       0.0479
     40 H10         2.7224   26.8826    6.2774 H           1 LIA       0.1881
     41 H11         6.7115   24.5747    8.7650 H           1 LIA       0.0904
     42 H12         6.2959   17.8318    8.3109 H           1 LIA       0.0605
     43 H13         6.2008   19.6128    9.9363 H           1 LIA       0.0512
     44 H14         7.7253   23.2449   10.8454 H           1 LIA       0.0579
     45 H15         8.5315   22.8670    9.3165 H           1 LIA       0.0579
     46 H16         8.3316   21.6080   10.5605 H           1 LIA       0.0579
     47 H17         4.6092   23.5841    3.9595 H           1 LIA       0.1831
     48 H18         5.8778   22.6408    4.5182 H           1 LIA       0.1831
     49 H19        -0.2593   33.0736    7.8781 H           1 LIA       0.0482
     50 H20         0.3068   32.4142    6.3259 H           1 LIA       0.0482
     51 H21         1.4426   32.6032    7.6852 H           1 LIA       0.0482
@<TRIPOS>BOND
     1     1     2   1
     2     1     6   1
     3     1    27  am
     4     2     3   1
     5     3     4   1
     6     4     5   1
     7     4     7   1
     8     5     6   1
     9     7     8   1
    10     8     9  ar
    11     8    13  ar
    12     9    10  ar
    13    10    11  ar
    14    11    12  ar
    15    11    14   1
    16    12    13  ar
    17    12    26   1
    18    14    15   2
    19    14    16   1
    20    16    17  ar
    21    16    21  ar
    22    17    18  ar
    23    17    24   1
    24    18    19  ar
    25    18    25   1
    26    19    20  ar
    27    20    21  ar
    28    21    22   1
    29    22    23   1
    30    27    28   1
    31    27    29   2
    32    27    30   2
    33     2    31   1
    34     2    32   1
    35     3    33   1
    36     3    34   1
    37     4    35   1
    38     5    36   1
    39     5    37   1
    40     6    38   1
    41     6    39   1
    42     7    40   1
    43    10    41   1
    44    19    42   1
    45    20    43   1
    46    23    44   1
    47    23    45   1
    48    23    46   1
    49    26    47   1
    50    26    48   1
    51    28    49   1
    52    28    50   1
    53    28    51   1
@<TRIPOS>SUBSTRUCTURE
     1  LIA      2

