@<TRIPOS>MOLECULE
2fvd_ligand_075
    51    53
SMALL
GAST_HUCK
****
This file was generated by PARSER (from files_GN.cpp)

@<TRIPOS>ATOM
      1 N1         -4.5412   21.9019   17.5928 N.am        1 LIA      -0.2385
      2 C2         -4.8673   23.2546   17.9668 C.3         1 LIA       0.0314
      3 C3         -5.3123   24.1150   16.7583 C.3         1 LIA      -0.0122
      4 C4         -4.3020   24.0141   15.5815 C.3         1 LIA       0.0456
      5 C5         -4.1032   22.5182   15.2083 C.3         1 LIA      -0.0122
      6 C6         -3.6928   21.6776   16.4453 C.3         1 LIA       0.0314
      7 N7         -4.7836   24.7934   14.4814 N.pl3       1 LIA      -0.2866
      8 C8         -4.0403   25.2626   13.4535 C.ar        1 LIA       0.1789
      9 N9         -2.7179   24.9908   13.2941 N.ar        1 LIA      -0.2656
     10 C10        -2.0006   25.5033   12.2639 C.ar        1 LIA       0.0186
     11 C11        -2.6063   26.3803   11.3351 C.ar        1 LIA       0.0852
     12 C12        -3.9935   26.6151   11.5017 C.ar        1 LIA       0.1302
     13 N13        -4.6560   26.0592   12.5471 N.ar        1 LIA      -0.2356
     14 C14        -1.8692   26.9491   10.3060 C.2         1 LIA       0.1492
     15 O15        -1.8233   26.3171    9.2616 O.2         1 LIA      -0.3856
     16 C16        -1.4218   28.2762   10.3372 C.ar        1 LIA       0.0920
     17 C17        -0.3290   28.6577   11.1705 C.ar        1 LIA       0.1766
     18 C18         0.1754   29.9721   11.1466 C.ar        1 LIA       0.1591
     19 C19        -0.4046   30.9347   10.3038 C.ar        1 LIA      -0.0338
     20 C20        -1.4800   30.5813    9.4749 C.ar        1 LIA      -0.0322
     21 C21        -2.0115   29.2722    9.4999 C.ar        1 LIA       0.1052
     22 O22        -3.0828   28.9639    8.6905 O.3         1 LIA      -0.3192
     23 C23        -4.1142   29.9702    8.6085 C.3         1 LIA       0.0603
     24 F24         0.2897   27.7994   11.9423 F           1 LIA      -0.1811
     25 F25         1.2002   30.3125   11.8846 F           1 LIA      -0.1924
     26 N26        -4.7173   27.3597   10.6503 N.pl3       1 LIA      -0.3135
     27 S27        -4.5475   20.6982   18.7867 S.o2        1 LIA       0.0385
     28 C28        -5.4622   21.0265   20.3069 C.3         1 LIA       0.0734
     29 O29        -3.0535   20.3846   19.2252 O.2         1 LIA      -0.1556
     30 O30        -5.1660   19.3656   18.1779 O.2         1 LIA      -0.1556
     31 H1         -3.9912   23.7154   18.4343 H           1 LIA       0.0479
     32 H2         -5.6864   23.2746   18.6894 H           1 LIA       0.0479
     33 H3         -5.4064   25.1569   17.0805 H           1 LIA       0.0304
     34 H4         -6.2979   23.7737   16.4236 H           1 LIA       0.0304
     35 H5         -3.3459   24.4341   15.9195 H           1 LIA       0.0563
     36 H6         -3.3329   22.4142   14.4403 H           1 LIA       0.0304
     37 H7         -5.0341   22.1136   14.8010 H           1 LIA       0.0304
     38 H8         -3.7151   20.6277   16.1455 H           1 LIA       0.0479
     39 H9         -2.6596   21.9221   16.7138 H           1 LIA       0.0479
     40 H10        -5.7146   25.0666   14.5087 H           1 LIA       0.1881
     41 H11        -1.0112   25.2589   12.1917 H           1 LIA       0.0904
     42 H12        -0.0474   31.8927   10.2896 H           1 LIA       0.0605
     43 H13        -1.8818   31.2859    8.8484 H           1 LIA       0.0512
     44 H14        -4.9958   29.5317    8.1349 H           1 LIA       0.0579
     45 H15        -3.7795   30.8134    7.9984 H           1 LIA       0.0579
     46 H16        -4.4097   30.3361    9.5953 H           1 LIA       0.0579
     47 H17        -5.6680   27.4862   10.8008 H           1 LIA       0.1831
     48 H18        -4.2978   27.7444    9.8672 H           1 LIA       0.1831
     49 H19        -5.3868   20.1637   20.9684 H           1 LIA       0.0482
     50 H20        -6.5111   21.2108   20.0768 H           1 LIA       0.0482
     51 H21        -5.0385   21.8989   20.8082 H           1 LIA       0.0482
@<TRIPOS>BOND
     1     1     2   1
     2     1     6   1
     3     1    27  am
     4     2     3   1
     5     3     4   1
     6     4     5   1
     7     4     7   1
     8     5     6   1
     9     7     8   1
    10     8     9  ar
    11     8    13  ar
    12     9    10  ar
    13    10    11  ar
    14    11    12  ar
    15    11    14   1
    16    12    13  ar
    17    12    26   1
    18    14    15   2
    19    14    16   1
    20    16    17  ar
    21    16    21  ar
    22    17    18  ar
    23    17    24   1
    24    18    19  ar
    25    18    25   1
    26    19    20  ar
    27    20    21  ar
    28    21    22   1
    29    22    23   1
    30    27    28   1
    31    27    29   2
    32    27    30   2
    33     2    31   1
    34     2    32   1
    35     3    33   1
    36     3    34   1
    37     4    35   1
    38     5    36   1
    39     5    37   1
    40     6    38   1
    41     6    39   1
    42     7    40   1
    43    10    41   1
    44    19    42   1
    45    20    43   1
    46    23    44   1
    47    23    45   1
    48    23    46   1
    49    26    47   1
    50    26    48   1
    51    28    49   1
    52    28    50   1
    53    28    51   1
@<TRIPOS>SUBSTRUCTURE
     1  LIA      2

