@<TRIPOS>MOLECULE
2fvd_ligand_041
    51    53
SMALL
GAST_HUCK
****
This file was generated by PARSER (from files_GN.cpp)

@<TRIPOS>ATOM
      1 N1         -5.3253   22.9997   16.0524 N.am        1 LIA      -0.2385
      2 C2         -4.7425   24.1090   15.3300 C.3         1 LIA       0.0314
      3 C3         -4.0033   23.6843   14.0343 C.3         1 LIA      -0.0122
      4 C4         -3.0389   22.4955   14.2952 C.3         1 LIA       0.0456
      5 C5         -3.8124   21.3356   14.9722 C.3         1 LIA      -0.0122
      6 C6         -4.5313   21.8112   16.2593 C.3         1 LIA       0.0314
      7 N7         -2.4542   22.0269   13.0764 N.pl3       1 LIA      -0.2866
      8 C8         -1.3481   22.5394   12.4866 C.ar        1 LIA       0.1789
      9 N9         -0.8977   21.9453   11.3567 N.ar        1 LIA      -0.2656
     10 C10         0.2053   22.3870   10.7095 C.ar        1 LIA       0.0186
     11 C11         0.9311   23.5067   11.1768 C.ar        1 LIA       0.0852
     12 C12         0.4398   24.1079   12.3684 C.ar        1 LIA       0.1302
     13 N13        -0.6641   23.6043   12.9744 N.ar        1 LIA      -0.2356
     14 C14         2.0437   23.9961   10.4760 C.2         1 LIA       0.1492
     15 O15         2.3071   25.1895   10.4842 O.2         1 LIA      -0.3856
     16 C16         2.9721   23.1728    9.8659 C.ar        1 LIA       0.0920
     17 C17         2.8161   22.8329    8.4947 C.ar        1 LIA       0.1766
     18 C18         3.7332   21.9702    7.8701 C.ar        1 LIA       0.1591
     19 C19         4.8202   21.4611    8.5943 C.ar        1 LIA      -0.0338
     20 C20         4.9969   21.8091    9.9411 C.ar        1 LIA      -0.0322
     21 C21         4.0839   22.6716   10.6015 C.ar        1 LIA       0.1052
     22 O22         4.1946   23.0735   11.9210 O.3         1 LIA      -0.3192
     23 C23         5.2919   22.6887   12.7637 C.3         1 LIA       0.0603
     24 F24         1.8187   23.3098    7.7932 F           1 LIA      -0.1811
     25 F25         3.5841   21.6348    6.6155 F           1 LIA      -0.1924
     26 N26         1.0413   25.1358   12.9940 N.pl3       1 LIA      -0.3135
     27 S27        -6.5567   23.3548   17.1658 S.o2        1 LIA       0.0385
     28 C28        -6.4139   24.9451   18.0098 C.3         1 LIA       0.0734
     29 O29        -6.5976   22.2796   18.3367 O.2         1 LIA      -0.1556
     30 O30        -7.9752   23.2451   16.4526 O.2         1 LIA      -0.1556
     31 H1         -4.0324   24.6207   15.9861 H           1 LIA       0.0479
     32 H2         -5.5120   24.8315   15.0434 H           1 LIA       0.0479
     33 H3         -3.4399   24.5354   13.6429 H           1 LIA       0.0304
     34 H4         -4.7419   23.4018   13.2799 H           1 LIA       0.0304
     35 H5         -2.2496   22.8164   14.9862 H           1 LIA       0.0563
     36 H6         -3.1155   20.5296   15.2223 H           1 LIA       0.0304
     37 H7         -4.5573   20.9346   14.2788 H           1 LIA       0.0304
     38 H8         -5.1536   20.9810   16.6034 H           1 LIA       0.0479
     39 H9         -3.7845   22.0155   17.0320 H           1 LIA       0.0479
     40 H10        -2.8826   21.2728   12.6372 H           1 LIA       0.1881
     41 H11         0.4787   21.8934    9.8570 H           1 LIA       0.0904
     42 H12         5.4918   20.8332    8.1386 H           1 LIA       0.0605
     43 H13         5.7982   21.4306   10.4436 H           1 LIA       0.0512
     44 H14         5.1511   23.1448   13.7420 H           1 LIA       0.0579
     45 H15         6.2440   23.0379   12.3588 H           1 LIA       0.0579
     46 H16         5.3158   21.6060   12.8936 H           1 LIA       0.0579
     47 H17         0.6638   25.4975   13.8130 H           1 LIA       0.1831
     48 H18         1.8675   25.5068   12.6496 H           1 LIA       0.1831
     49 H19        -7.1915   25.0240   18.7713 H           1 LIA       0.0482
     50 H20        -6.5312   25.7599   17.2941 H           1 LIA       0.0482
     51 H21        -5.4353   25.0213   18.4865 H           1 LIA       0.0482
@<TRIPOS>BOND
     1     1     2   1
     2     1     6   1
     3     1    27  am
     4     2     3   1
     5     3     4   1
     6     4     5   1
     7     4     7   1
     8     5     6   1
     9     7     8   1
    10     8     9  ar
    11     8    13  ar
    12     9    10  ar
    13    10    11  ar
    14    11    12  ar
    15    11    14   1
    16    12    13  ar
    17    12    26   1
    18    14    15   2
    19    14    16   1
    20    16    17  ar
    21    16    21  ar
    22    17    18  ar
    23    17    24   1
    24    18    19  ar
    25    18    25   1
    26    19    20  ar
    27    20    21  ar
    28    21    22   1
    29    22    23   1
    30    27    28   1
    31    27    29   2
    32    27    30   2
    33     2    31   1
    34     2    32   1
    35     3    33   1
    36     3    34   1
    37     4    35   1
    38     5    36   1
    39     5    37   1
    40     6    38   1
    41     6    39   1
    42     7    40   1
    43    10    41   1
    44    19    42   1
    45    20    43   1
    46    23    44   1
    47    23    45   1
    48    23    46   1
    49    26    47   1
    50    26    48   1
    51    28    49   1
    52    28    50   1
    53    28    51   1
@<TRIPOS>SUBSTRUCTURE
     1  LIA      2

