@<TRIPOS>MOLECULE
2fvd_ligand_032
    51    53
SMALL
GAST_HUCK
****
This file was generated by PARSER (from files_GN.cpp)

@<TRIPOS>ATOM
      1 N1         -1.0448   30.0775   10.8104 N.am        1 LIA      -0.2385
      2 C2          0.3863   29.9012   10.7850 C.3         1 LIA       0.0314
      3 C3          0.7683   28.4463   11.1427 C.3         1 LIA      -0.0122
      4 C4          0.1130   27.9824   12.4794 C.3         1 LIA       0.0456
      5 C5         -1.4221   28.2123   12.4057 C.3         1 LIA      -0.0122
      6 C6         -1.7672   29.6694   11.9928 C.3         1 LIA       0.0314
      7 N7          0.3663   26.6434   12.9439 N.pl3       1 LIA      -0.2866
      8 C8          0.8433   25.5546   12.2934 C.ar        1 LIA       0.1789
      9 N9          0.9865   24.4066   12.9938 N.ar        1 LIA      -0.2656
     10 C10         1.4485   23.2650   12.4206 C.ar        1 LIA       0.0186
     11 C11         1.7919   23.2204   11.0437 C.ar        1 LIA       0.0852
     12 C12         1.6309   24.4369   10.3338 C.ar        1 LIA       0.1302
     13 N13         1.1721   25.5311   10.9828 N.ar        1 LIA      -0.2356
     14 C14         2.2204   22.0271   10.4390 C.2         1 LIA       0.1492
     15 O15         1.9404   21.8259    9.2638 O.2         1 LIA      -0.3856
     16 C16         2.8991   20.9942   11.0992 C.ar        1 LIA       0.0920
     17 C17         4.0615   21.2679   11.8700 C.ar        1 LIA       0.1766
     18 C18         4.7718   20.2180   12.4840 C.ar        1 LIA       0.1591
     19 C19         4.3382   18.8876   12.3336 C.ar        1 LIA      -0.0338
     20 C20         3.1886   18.6060   11.5798 C.ar        1 LIA      -0.0322
     21 C21         2.4572   19.6480   10.9796 C.ar        1 LIA       0.1052
     22 O22         1.3281   19.3174   10.2709 O.3         1 LIA      -0.3192
     23 C23         0.1336   19.3013   11.0739 C.3         1 LIA       0.0603
     24 F24         4.5282   22.4874   12.0005 F           1 LIA      -0.1811
     25 F25         5.8504   20.4593   13.1784 F           1 LIA      -0.1924
     26 N26         1.9298   24.6102    9.0344 N.pl3       1 LIA      -0.3135
     27 S27        -1.7334   31.2330    9.7825 S.o2        1 LIA       0.0385
     28 C28        -1.5701   32.9408   10.3267 C.3         1 LIA       0.0734
     29 O29        -3.2669   30.8979    9.5316 O.2         1 LIA      -0.1556
     30 O30        -1.1074   31.0976    8.3262 O.2         1 LIA      -0.1556
     31 H1          0.8512   30.5865   11.4963 H           1 LIA       0.0479
     32 H2          0.8024   30.1147    9.7966 H           1 LIA       0.0479
     33 H3          1.8564   28.3642   11.2215 H           1 LIA       0.0304
     34 H4          0.4274   27.8250   10.3098 H           1 LIA       0.0304
     35 H5          0.5069   28.6326   13.2677 H           1 LIA       0.0563
     36 H6         -1.8769   27.9941   13.3762 H           1 LIA       0.0304
     37 H7         -1.8550   27.5271   11.6701 H           1 LIA       0.0304
     38 H8         -2.8506   29.7308   11.8466 H           1 LIA       0.0479
     39 H9         -1.5063   30.3437   12.8117 H           1 LIA       0.0479
     40 H10         0.1363   26.5056   13.8773 H           1 LIA       0.1881
     41 H11         1.5186   22.4317   13.0079 H           1 LIA       0.0904
     42 H12         4.8616   18.1262   12.7652 H           1 LIA       0.0605
     43 H13         2.8817   17.6389   11.4739 H           1 LIA       0.0512
     44 H14        -0.7076   19.0510   10.4278 H           1 LIA       0.0579
     45 H15        -0.0627   20.2786   11.5231 H           1 LIA       0.0579
     46 H16         0.1938   18.5452   11.8610 H           1 LIA       0.0579
     47 H17         1.7985   25.4776    8.6226 H           1 LIA       0.1831
     48 H18         2.2883   23.8816    8.5033 H           1 LIA       0.1831
     49 H19        -1.9889   33.6064    9.5716 H           1 LIA       0.0482
     50 H20        -0.5158   33.1814   10.4707 H           1 LIA       0.0482
     51 H21        -2.1060   33.0753   11.2675 H           1 LIA       0.0482
@<TRIPOS>BOND
     1     1     2   1
     2     1     6   1
     3     1    27  am
     4     2     3   1
     5     3     4   1
     6     4     5   1
     7     4     7   1
     8     5     6   1
     9     7     8   1
    10     8     9  ar
    11     8    13  ar
    12     9    10  ar
    13    10    11  ar
    14    11    12  ar
    15    11    14   1
    16    12    13  ar
    17    12    26   1
    18    14    15   2
    19    14    16   1
    20    16    17  ar
    21    16    21  ar
    22    17    18  ar
    23    17    24   1
    24    18    19  ar
    25    18    25   1
    26    19    20  ar
    27    20    21  ar
    28    21    22   1
    29    22    23   1
    30    27    28   1
    31    27    29   2
    32    27    30   2
    33     2    31   1
    34     2    32   1
    35     3    33   1
    36     3    34   1
    37     4    35   1
    38     5    36   1
    39     5    37   1
    40     6    38   1
    41     6    39   1
    42     7    40   1
    43    10    41   1
    44    19    42   1
    45    20    43   1
    46    23    44   1
    47    23    45   1
    48    23    46   1
    49    26    47   1
    50    26    48   1
    51    28    49   1
    52    28    50   1
    53    28    51   1
@<TRIPOS>SUBSTRUCTURE
     1  LIA      2

