@<TRIPOS>MOLECULE
2fvd_ligand_012
    51    53
SMALL
GAST_HUCK
****
This file was generated by PARSER (from files_GN.cpp)

@<TRIPOS>ATOM
      1 N1         -4.0267   24.4200   14.9842 N.am        1 LIA      -0.2385
      2 C2         -3.0727   23.3959   14.6252 C.3         1 LIA       0.0314
      3 C3         -2.3301   23.7404   13.3036 C.3         1 LIA      -0.0122
      4 C4         -3.3184   24.1479   12.1703 C.3         1 LIA       0.0456
      5 C5         -4.3268   25.2228   12.6715 C.3         1 LIA      -0.0122
      6 C6         -5.0052   24.8138   14.0046 C.3         1 LIA       0.0314
      7 N7         -2.7027   24.5535   10.9318 N.pl3       1 LIA      -0.2866
      8 C8         -1.8506   25.5819   10.7167 C.ar        1 LIA       0.1789
      9 N9         -1.5536   25.9288    9.4391 N.ar        1 LIA      -0.2656
     10 C10        -0.7323   26.9697    9.1419 C.ar        1 LIA       0.0186
     11 C11        -0.1202   27.7154   10.1762 C.ar        1 LIA       0.0852
     12 C12        -0.4137   27.3097   11.5073 C.ar        1 LIA       0.1302
     13 N13        -1.2708   26.2824   11.7277 N.ar        1 LIA      -0.2356
     14 C14         0.7373   28.7644    9.8584 C.2         1 LIA       0.1492
     15 O15         1.8541   28.7728   10.3624 O.2         1 LIA      -0.3856
     16 C16         0.2317   30.0040    9.4662 C.ar        1 LIA       0.0920
     17 C17        -0.4369   30.8481   10.3986 C.ar        1 LIA       0.1766
     18 C18        -0.9179   32.1105   10.0019 C.ar        1 LIA       0.1591
     19 C19        -0.7259   32.5575    8.6871 C.ar        1 LIA      -0.0338
     20 C20        -0.0478   31.7422    7.7611 C.ar        1 LIA      -0.0322
     21 C21         0.4328   30.4658    8.1386 C.ar        1 LIA       0.1052
     22 O22         1.0017   29.6245    7.2050 O.3         1 LIA      -0.3192
     23 C23         2.0424   30.2006    6.3998 C.3         1 LIA       0.0603
     24 F24        -0.6346   30.4711   11.6364 F           1 LIA      -0.1811
     25 F25        -1.5489   32.8786   10.8481 F           1 LIA      -0.1924
     26 N26         0.1112   27.9001   12.5938 N.pl3       1 LIA      -0.3135
     27 S27        -4.2292   24.8808   16.6056 S.o2        1 LIA       0.0385
     28 C28        -5.9226   25.2078   17.1409 C.3         1 LIA       0.0734
     29 O29        -3.3058   26.1291   16.9420 O.2         1 LIA      -0.1556
     30 O30        -3.7266   23.7095   17.5557 O.2         1 LIA      -0.1556
     31 H1         -3.5994   22.4438   14.5146 H           1 LIA       0.0479
     32 H2         -2.3083   23.2634   15.3996 H           1 LIA       0.0479
     33 H3         -1.7430   22.8743   12.9827 H           1 LIA       0.0304
     34 H4         -1.6338   24.5569   13.5118 H           1 LIA       0.0304
     35 H5         -3.9021   23.2543   11.9257 H           1 LIA       0.0563
     36 H6         -5.1024   25.3807   11.9112 H           1 LIA       0.0304
     37 H7         -3.8087   26.1724   12.8292 H           1 LIA       0.0304
     38 H8         -5.6024   25.6666   14.3398 H           1 LIA       0.0479
     39 H9         -5.6920   23.9755   13.8340 H           1 LIA       0.0479
     40 H10        -2.9964   24.0723   10.1420 H           1 LIA       0.1881
     41 H11        -0.5618   27.1826    8.1594 H           1 LIA       0.0904
     42 H12        -1.0895   33.4639    8.3945 H           1 LIA       0.0605
     43 H13         0.0933   32.0817    6.8116 H           1 LIA       0.0512
     44 H14         2.5501   29.3927    5.8704 H           1 LIA       0.0579
     45 H15         2.7800   30.7361    7.0039 H           1 LIA       0.0579
     46 H16         1.6204   30.8736    5.6531 H           1 LIA       0.0579
     47 H17        -0.1357   27.5948   13.4826 H           1 LIA       0.1831
     48 H18         0.7334   28.6409   12.5029 H           1 LIA       0.1831
     49 H19        -5.9385   25.3670   18.2197 H           1 LIA       0.0482
     50 H20        -6.5563   24.3581   16.8908 H           1 LIA       0.0482
     51 H21        -6.2996   26.1027   16.6453 H           1 LIA       0.0482
@<TRIPOS>BOND
     1     1     2   1
     2     1     6   1
     3     1    27  am
     4     2     3   1
     5     3     4   1
     6     4     5   1
     7     4     7   1
     8     5     6   1
     9     7     8   1
    10     8     9  ar
    11     8    13  ar
    12     9    10  ar
    13    10    11  ar
    14    11    12  ar
    15    11    14   1
    16    12    13  ar
    17    12    26   1
    18    14    15   2
    19    14    16   1
    20    16    17  ar
    21    16    21  ar
    22    17    18  ar
    23    17    24   1
    24    18    19  ar
    25    18    25   1
    26    19    20  ar
    27    20    21  ar
    28    21    22   1
    29    22    23   1
    30    27    28   1
    31    27    29   2
    32    27    30   2
    33     2    31   1
    34     2    32   1
    35     3    33   1
    36     3    34   1
    37     4    35   1
    38     5    36   1
    39     5    37   1
    40     6    38   1
    41     6    39   1
    42     7    40   1
    43    10    41   1
    44    19    42   1
    45    20    43   1
    46    23    44   1
    47    23    45   1
    48    23    46   1
    49    26    47   1
    50    26    48   1
    51    28    49   1
    52    28    50   1
    53    28    51   1
@<TRIPOS>SUBSTRUCTURE
     1  LIA      2

