@<TRIPOS>MOLECULE
2fvd_ligand_039
    51    53
SMALL
GAST_HUCK
****
This file was generated by PARSER (from files_GN.cpp)

@<TRIPOS>ATOM
      1 N1          3.0198   22.5575   12.2643 N.am        1 LIA      -0.2385
      2 C2          3.0378   23.9473   11.8861 C.3         1 LIA       0.0314
      3 C3          1.6503   24.5991   12.0743 C.3         1 LIA      -0.0122
      4 C4          0.5287   23.8079   11.3382 C.3         1 LIA       0.0456
      5 C5          0.5776   22.3259   11.8103 C.3         1 LIA      -0.0122
      6 C6          1.9984   21.7069   11.7024 C.3         1 LIA       0.0314
      7 N7         -0.7804   24.3393   11.5969 N.pl3       1 LIA      -0.2866
      8 C8         -1.2082   25.5945   11.3316 C.ar        1 LIA       0.1789
      9 N9         -0.4538   26.5094   10.6753 N.ar        1 LIA      -0.2656
     10 C10        -0.8514   27.7947   10.5184 C.ar        1 LIA       0.0186
     11 C11        -2.0773   28.2513   11.0636 C.ar        1 LIA       0.0852
     12 C12        -2.8804   27.2472   11.6721 C.ar        1 LIA       0.1302
     13 N13        -2.4245   25.9761   11.7963 N.ar        1 LIA      -0.2356
     14 C14        -2.4268   29.6068   11.0262 C.2         1 LIA       0.1492
     15 O15        -3.1631   30.0755   11.8829 O.2         1 LIA      -0.3856
     16 C16        -2.1256   30.4415    9.9604 C.ar        1 LIA       0.0920
     17 C17        -0.8648   31.0837    9.8600 C.ar        1 LIA       0.1766
     18 C18        -0.5820   31.9285    8.7659 C.ar        1 LIA       0.1591
     19 C19        -1.5603   32.1592    7.7839 C.ar        1 LIA      -0.0338
     20 C20        -2.8248   31.5589    7.8974 C.ar        1 LIA      -0.0322
     21 C21        -3.1162   30.7037    8.9791 C.ar        1 LIA       0.1052
     22 O22        -4.3960   30.2258    9.1223 O.3         1 LIA      -0.3192
     23 C23        -4.6148   28.9350    8.5307 C.3         1 LIA       0.0603
     24 F24         0.0501   30.9187   10.7824 F           1 LIA      -0.1811
     25 F25         0.5806   32.5155    8.6526 F           1 LIA      -0.1924
     26 N26        -4.1312   27.4585   12.1208 N.pl3       1 LIA      -0.3135
     27 S27         4.4771   21.8307   12.7291 S.o2        1 LIA       0.0385
     28 C28         5.3700   21.0191   11.3907 C.3         1 LIA       0.0734
     29 O29         4.2359   20.8270   13.9411 O.2         1 LIA      -0.1556
     30 O30         5.4676   22.9103   13.3517 O.2         1 LIA      -0.1556
     31 H1          3.3524   24.0335   10.8407 H           1 LIA       0.0479
     32 H2          3.7410   24.5237   12.4924 H           1 LIA       0.0479
     33 H3          1.7092   25.6202   11.7052 H           1 LIA       0.0304
     34 H4          1.4156   24.6532   13.1424 H           1 LIA       0.0304
     35 H5          0.7127   23.8353   10.2598 H           1 LIA       0.0563
     36 H6         -0.1191   21.7262   11.2139 H           1 LIA       0.0304
     37 H7          0.2553   22.2675   12.8556 H           1 LIA       0.0304
     38 H8          1.9752   20.7377   12.2116 H           1 LIA       0.0479
     39 H9          2.2301   21.5243   10.6478 H           1 LIA       0.0479
     40 H10        -1.4070   23.7555   12.0541 H           1 LIA       0.1881
     41 H11        -0.2124   28.4304   10.0377 H           1 LIA       0.0904
     42 H12        -1.3598   32.7801    6.9988 H           1 LIA       0.0605
     43 H13        -3.5385   31.7577    7.1935 H           1 LIA       0.0512
     44 H14        -5.6120   28.5997    8.8085 H           1 LIA       0.0579
     45 H15        -3.8988   28.1943    8.8936 H           1 LIA       0.0579
     46 H16        -4.5632   28.9933    7.4404 H           1 LIA       0.0579
     47 H17        -4.6371   26.7268   12.5141 H           1 LIA       0.1831
     48 H18        -4.5444   28.3325   12.0252 H           1 LIA       0.1831
     49 H19         6.3187   20.6274   11.7650 H           1 LIA       0.0482
     50 H20         5.5643   21.7405   10.5987 H           1 LIA       0.0482
     51 H21         4.7716   20.1965   10.9957 H           1 LIA       0.0482
@<TRIPOS>BOND
     1     1     2   1
     2     1     6   1
     3     1    27  am
     4     2     3   1
     5     3     4   1
     6     4     5   1
     7     4     7   1
     8     5     6   1
     9     7     8   1
    10     8     9  ar
    11     8    13  ar
    12     9    10  ar
    13    10    11  ar
    14    11    12  ar
    15    11    14   1
    16    12    13  ar
    17    12    26   1
    18    14    15   2
    19    14    16   1
    20    16    17  ar
    21    16    21  ar
    22    17    18  ar
    23    17    24   1
    24    18    19  ar
    25    18    25   1
    26    19    20  ar
    27    20    21  ar
    28    21    22   1
    29    22    23   1
    30    27    28   1
    31    27    29   2
    32    27    30   2
    33     2    31   1
    34     2    32   1
    35     3    33   1
    36     3    34   1
    37     4    35   1
    38     5    36   1
    39     5    37   1
    40     6    38   1
    41     6    39   1
    42     7    40   1
    43    10    41   1
    44    19    42   1
    45    20    43   1
    46    23    44   1
    47    23    45   1
    48    23    46   1
    49    26    47   1
    50    26    48   1
    51    28    49   1
    52    28    50   1
    53    28    51   1
@<TRIPOS>SUBSTRUCTURE
     1  LIA      2

