@<TRIPOS>MOLECULE
2fvd_ligand_034
    51    53
SMALL
GAST_HUCK
****
This file was generated by PARSER (from files_GN.cpp)

@<TRIPOS>ATOM
      1 N1         -1.9057   31.2243    9.4348 N.am        1 LIA      -0.2385
      2 C2         -2.7132   31.5374   10.5886 C.3         1 LIA       0.0314
      3 C3         -3.5358   30.2998   11.0309 C.3         1 LIA      -0.0122
      4 C4         -4.3604   29.7193    9.8424 C.3         1 LIA       0.0456
      5 C5         -3.4187   29.4165    8.6457 C.3         1 LIA      -0.0122
      6 C6         -2.5270   30.6296    8.2765 C.3         1 LIA       0.0314
      7 N7         -5.1773   28.5612   10.0763 N.pl3       1 LIA      -0.2866
      8 C8         -5.1020   27.5969   11.0175 C.ar        1 LIA       0.1789
      9 N9         -4.1795   27.5510   12.0153 N.ar        1 LIA      -0.2656
     10 C10        -4.1596   26.5448   12.9269 C.ar        1 LIA       0.0186
     11 C11        -5.1280   25.5148   12.8802 C.ar        1 LIA       0.0852
     12 C12        -6.0525   25.5614   11.8145 C.ar        1 LIA       0.1302
     13 N13        -6.0160   26.5957   10.9327 N.ar        1 LIA      -0.2356
     14 C14        -5.1148   24.4991   13.8182 C.2         1 LIA       0.1492
     15 O15        -4.5627   23.4629   13.4721 O.2         1 LIA      -0.3856
     16 C16        -5.4535   24.7047   15.1630 C.ar        1 LIA       0.0920
     17 C17        -4.6239   24.2187   16.2096 C.ar        1 LIA       0.1766
     18 C18        -4.9914   24.3879   17.5609 C.ar        1 LIA       0.1591
     19 C19        -6.1749   25.0601   17.8935 C.ar        1 LIA      -0.0338
     20 C20        -7.0053   25.5490   16.8755 C.ar        1 LIA      -0.0322
     21 C21        -6.6690   25.3639   15.5184 C.ar        1 LIA       0.1052
     22 O22        -7.5654   25.8091   14.5706 O.3         1 LIA      -0.3192
     23 C23        -8.5408   24.8103   14.2198 C.3         1 LIA       0.0603
     24 F24        -3.4855   23.6203   15.9566 F           1 LIA      -0.1811
     25 F25        -4.2361   23.9247   18.5194 F           1 LIA      -0.1924
     26 N26        -7.0053   24.6310   11.6266 N.pl3       1 LIA      -0.3135
     27 S27        -0.3528   31.8759    9.2764 S.o2        1 LIA       0.0385
     28 C28        -0.1234   32.8782    7.7983 C.3         1 LIA       0.0734
     29 O29         0.6985   30.6819    9.2809 O.2         1 LIA      -0.1556
     30 O30         0.0196   32.8201   10.4978 O.2         1 LIA      -0.1556
     31 H1         -3.3824   32.3691   10.3470 H           1 LIA       0.0479
     32 H2         -2.1042   31.8412   11.4418 H           1 LIA       0.0479
     33 H3         -4.2035   30.5789   11.8489 H           1 LIA       0.0304
     34 H4         -2.8295   29.5523   11.4015 H           1 LIA       0.0304
     35 H5         -5.0533   30.5031    9.5298 H           1 LIA       0.0563
     36 H6         -4.0136   29.1384    7.7713 H           1 LIA       0.0304
     37 H7         -2.7739   28.5672    8.8995 H           1 LIA       0.0304
     38 H8         -1.7805   30.2744    7.5609 H           1 LIA       0.0479
     39 H9         -3.1321   31.3904    7.7751 H           1 LIA       0.0479
     40 H10        -5.8624   28.4192    9.4060 H           1 LIA       0.1881
     41 H11        -3.4315   26.5489   13.6434 H           1 LIA       0.0904
     42 H12        -6.4462   25.1771   18.8642 H           1 LIA       0.0605
     43 H13        -7.8810   26.0182   17.1219 H           1 LIA       0.0512
     44 H14        -9.1545   25.1862   13.4001 H           1 LIA       0.0579
     45 H15        -9.2108   24.6030   15.0679 H           1 LIA       0.0579
     46 H16        -8.0607   23.8848   13.8796 H           1 LIA       0.0579
     47 H17        -7.6043   24.7190   10.8651 H           1 LIA       0.1831
     48 H18        -7.0893   23.8702   12.2187 H           1 LIA       0.1831
     49 H19         0.8863   33.2876    7.7939 H           1 LIA       0.0482
     50 H20        -0.8464   33.6966    7.8016 H           1 LIA       0.0482
     51 H21        -0.2706   32.2700    6.9065 H           1 LIA       0.0482
@<TRIPOS>BOND
     1     1     2   1
     2     1     6   1
     3     1    27  am
     4     2     3   1
     5     3     4   1
     6     4     5   1
     7     4     7   1
     8     5     6   1
     9     7     8   1
    10     8     9  ar
    11     8    13  ar
    12     9    10  ar
    13    10    11  ar
    14    11    12  ar
    15    11    14   1
    16    12    13  ar
    17    12    26   1
    18    14    15   2
    19    14    16   1
    20    16    17  ar
    21    16    21  ar
    22    17    18  ar
    23    17    24   1
    24    18    19  ar
    25    18    25   1
    26    19    20  ar
    27    20    21  ar
    28    21    22   1
    29    22    23   1
    30    27    28   1
    31    27    29   2
    32    27    30   2
    33     2    31   1
    34     2    32   1
    35     3    33   1
    36     3    34   1
    37     4    35   1
    38     5    36   1
    39     5    37   1
    40     6    38   1
    41     6    39   1
    42     7    40   1
    43    10    41   1
    44    19    42   1
    45    20    43   1
    46    23    44   1
    47    23    45   1
    48    23    46   1
    49    26    47   1
    50    26    48   1
    51    28    49   1
    52    28    50   1
    53    28    51   1
@<TRIPOS>SUBSTRUCTURE
     1  LIA      2

