@<TRIPOS>MOLECULE
2fvd_ligand_066
    51    53
SMALL
GAST_HUCK
****
This file was generated by PARSER (from files_GN.cpp)

@<TRIPOS>ATOM
      1 N1         -1.7961   29.7792   10.5020 N.am        1 LIA      -0.2385
      2 C2         -1.4837   29.3506   11.8444 C.3         1 LIA       0.0314
      3 C3         -0.4402   28.2014   11.8671 C.3         1 LIA      -0.0122
      4 C4         -0.8367   27.0615   10.8923 C.3         1 LIA       0.0456
      5 C5         -1.1114   27.6398    9.4690 C.3         1 LIA      -0.0122
      6 C6         -2.1487   28.7872    9.5134 C.3         1 LIA       0.0314
      7 N7          0.0768   25.9546   10.9664 N.pl3       1 LIA      -0.2866
      8 C8          1.3252   25.8475   10.4568 C.ar        1 LIA       0.1789
      9 N9          1.9382   26.8475    9.7767 N.ar        1 LIA      -0.2656
     10 C10         3.1452   26.6828    9.1882 C.ar        1 LIA       0.0186
     11 C11         3.8137   25.4356    9.2495 C.ar        1 LIA       0.0852
     12 C12         3.1900   24.4302   10.0319 C.ar        1 LIA       0.1302
     13 N13         1.9714   24.6603   10.5880 N.ar        1 LIA      -0.2356
     14 C14         5.0101   25.2674    8.5586 C.2         1 LIA       0.1492
     15 O15         5.8167   26.1636    8.7650 O.2         1 LIA      -0.3856
     16 C16         5.3195   24.2095    7.6623 C.ar        1 LIA       0.0920
     17 C17         4.3062   23.4177    7.0346 C.ar        1 LIA       0.1766
     18 C18         4.6308   22.3222    6.2043 C.ar        1 LIA       0.1591
     19 C19         5.9723   22.0145    5.9406 C.ar        1 LIA      -0.0338
     20 C20         6.9882   22.8059    6.4905 C.ar        1 LIA      -0.0322
     21 C21         6.6770   23.9034    7.3241 C.ar        1 LIA       0.1052
     22 O22         7.7482   24.5877    7.8371 O.3         1 LIA      -0.3192
     23 C23         8.1544   25.7194    7.0430 C.3         1 LIA       0.0603
     24 F24         3.0276   23.6728    7.1524 F           1 LIA      -0.1811
     25 F25         3.6967   21.5843    5.6607 F           1 LIA      -0.1924
     26 N26         3.7459   23.2256   10.2544 N.pl3       1 LIA      -0.3135
     27 S27        -2.3006   31.3745   10.2374 S.o2        1 LIA       0.0385
     28 C28        -1.1620   32.3338    9.2237 C.3         1 LIA       0.0734
     29 O29        -2.5354   32.1624   11.6000 O.2         1 LIA      -0.1556
     30 O30        -3.7355   31.3528    9.5533 O.2         1 LIA      -0.1556
     31 H1         -2.4106   29.0164   12.3222 H           1 LIA       0.0479
     32 H2         -1.0792   30.1697   12.4463 H           1 LIA       0.0479
     33 H3         -0.3682   27.8078   12.8855 H           1 LIA       0.0304
     34 H4          0.5392   28.5985   11.5886 H           1 LIA       0.0304
     35 H5         -1.7861   26.6545   11.2534 H           1 LIA       0.0563
     36 H6         -1.4618   26.8459    8.8039 H           1 LIA       0.0304
     37 H7         -0.2042   28.0658    9.0391 H           1 LIA       0.0304
     38 H8         -2.1972   29.2255    8.5111 H           1 LIA       0.0479
     39 H9         -3.1346   28.3774    9.7447 H           1 LIA       0.0479
     40 H10        -0.2583   25.1586   11.4057 H           1 LIA       0.1881
     41 H11         3.5323   27.4742    8.6597 H           1 LIA       0.0904
     42 H12         6.2104   21.2233    5.3378 H           1 LIA       0.0605
     43 H13         7.9655   22.5786    6.2822 H           1 LIA       0.0512
     44 H14         8.9655   26.2251    7.5665 H           1 LIA       0.0579
     45 H15         7.3447   26.4393    6.9027 H           1 LIA       0.0579
     46 H16         8.5216   25.4035    6.0637 H           1 LIA       0.0579
     47 H17         3.2853   22.5682   10.7997 H           1 LIA       0.1831
     48 H18         4.6103   23.0068    9.8742 H           1 LIA       0.1831
     49 H19        -1.5490   33.3456    9.1148 H           1 LIA       0.0482
     50 H20        -1.0672   31.8734    8.2404 H           1 LIA       0.0482
     51 H21        -0.1840   32.3691    9.7038 H           1 LIA       0.0482
@<TRIPOS>BOND
     1     1     2   1
     2     1     6   1
     3     1    27  am
     4     2     3   1
     5     3     4   1
     6     4     5   1
     7     4     7   1
     8     5     6   1
     9     7     8   1
    10     8     9  ar
    11     8    13  ar
    12     9    10  ar
    13    10    11  ar
    14    11    12  ar
    15    11    14   1
    16    12    13  ar
    17    12    26   1
    18    14    15   2
    19    14    16   1
    20    16    17  ar
    21    16    21  ar
    22    17    18  ar
    23    17    24   1
    24    18    19  ar
    25    18    25   1
    26    19    20  ar
    27    20    21  ar
    28    21    22   1
    29    22    23   1
    30    27    28   1
    31    27    29   2
    32    27    30   2
    33     2    31   1
    34     2    32   1
    35     3    33   1
    36     3    34   1
    37     4    35   1
    38     5    36   1
    39     5    37   1
    40     6    38   1
    41     6    39   1
    42     7    40   1
    43    10    41   1
    44    19    42   1
    45    20    43   1
    46    23    44   1
    47    23    45   1
    48    23    46   1
    49    26    47   1
    50    26    48   1
    51    28    49   1
    52    28    50   1
    53    28    51   1
@<TRIPOS>SUBSTRUCTURE
     1  LIA      2

