@<TRIPOS>MOLECULE
2fvd_ligand_078
    51    53
SMALL
GAST_HUCK
****
This file was generated by PARSER (from files_GN.cpp)

@<TRIPOS>ATOM
      1 N1         -5.5296   23.7616   17.6833 N.am        1 LIA      -0.2385
      2 C2         -4.9575   24.4303   16.5410 C.3         1 LIA       0.0314
      3 C3         -4.4765   23.4422   15.4541 C.3         1 LIA      -0.0122
      4 C4         -3.5355   22.3627   16.0579 C.3         1 LIA       0.0456
      5 C5         -4.2689   21.6465   17.2236 C.3         1 LIA      -0.0122
      6 C6         -4.8324   22.6443   18.2719 C.3         1 LIA       0.0314
      7 N7         -3.1402   21.3938   15.0807 N.pl3       1 LIA      -0.2866
      8 C8         -2.4456   21.6503   13.9533 C.ar        1 LIA       0.1789
      9 N9         -2.2342   20.6169   13.0987 N.ar        1 LIA      -0.2656
     10 C10        -1.5368   20.7674   11.9452 C.ar        1 LIA       0.0186
     11 C11        -0.9888   22.0264   11.6145 C.ar        1 LIA       0.0852
     12 C12        -1.2234   23.0952   12.5126 C.ar        1 LIA       0.1302
     13 N13        -1.9514   22.8769   13.6379 N.ar        1 LIA      -0.2356
     14 C14        -0.2765   22.1702   10.4366 C.2         1 LIA       0.1492
     15 O15        -0.9690   22.0188    9.4253 O.2         1 LIA      -0.3856
     16 C16         1.0844   22.5447   10.3232 C.ar        1 LIA       0.0920
     17 C17         1.5798   23.1051    9.1050 C.ar        1 LIA       0.1766
     18 C18         2.9438   23.4193    8.9330 C.ar        1 LIA       0.1591
     19 C19         3.8477   23.2070    9.9817 C.ar        1 LIA      -0.0338
     20 C20         3.3809   22.7038   11.2056 C.ar        1 LIA      -0.0322
     21 C21         2.0242   22.3611   11.3895 C.ar        1 LIA       0.1052
     22 O22         1.5871   21.9157   12.6158 O.3         1 LIA      -0.3192
     23 C23         2.4019   21.0629   13.4472 C.3         1 LIA       0.0603
     24 F24         0.7897   23.3940    8.0933 F           1 LIA      -0.1811
     25 F25         3.3917   23.9274    7.8123 F           1 LIA      -0.1924
     26 N26        -0.7638   24.3420   12.2972 N.pl3       1 LIA      -0.3135
     27 S27        -6.6727   24.6069   18.6186 S.o2        1 LIA       0.0385
     28 C28        -6.3936   26.3828   18.7645 C.3         1 LIA       0.0734
     29 O29        -6.6791   24.0845   20.1214 O.2         1 LIA      -0.1556
     30 O30        -8.1333   24.3338   18.0550 O.2         1 LIA      -0.1556
     31 H1         -4.1089   25.0345   16.8803 H           1 LIA       0.0479
     32 H2         -5.6823   25.1082   16.0769 H           1 LIA       0.0479
     33 H3         -3.9568   23.9965   14.6670 H           1 LIA       0.0304
     34 H4         -5.3483   22.9563   15.0054 H           1 LIA       0.0304
     35 H5         -2.6350   22.8455   16.4510 H           1 LIA       0.0563
     36 H6         -3.5804   20.9546   17.7184 H           1 LIA       0.0304
     37 H7         -5.0989   21.0561   16.8212 H           1 LIA       0.0304
     38 H8         -5.4992   22.0777   18.9296 H           1 LIA       0.0479
     39 H9         -4.0118   23.0294   18.8825 H           1 LIA       0.0479
     40 H10        -3.3612   20.4664   15.2636 H           1 LIA       0.1881
     41 H11        -1.4114   19.9524   11.3405 H           1 LIA       0.0904
     42 H12         4.8344   23.4299    9.8688 H           1 LIA       0.0605
     43 H13         4.0566   22.5943   11.9628 H           1 LIA       0.0512
     44 H14         1.7706   20.6261   14.2156 H           1 LIA       0.0579
     45 H15         3.1865   21.6455   13.9448 H           1 LIA       0.0579
     46 H16         2.8641   20.2548   12.8689 H           1 LIA       0.0579
     47 H17        -0.9630   25.0469   12.9279 H           1 LIA       0.1831
     48 H18        -0.2201   24.5375   11.5155 H           1 LIA       0.1831
     49 H19        -7.1339   26.8176   19.4419 H           1 LIA       0.0482
     50 H20        -6.4880   26.8559   17.7845 H           1 LIA       0.0482
     51 H21        -5.3924   26.5680   19.1609 H           1 LIA       0.0482
@<TRIPOS>BOND
     1     1     2   1
     2     1     6   1
     3     1    27  am
     4     2     3   1
     5     3     4   1
     6     4     5   1
     7     4     7   1
     8     5     6   1
     9     7     8   1
    10     8     9  ar
    11     8    13  ar
    12     9    10  ar
    13    10    11  ar
    14    11    12  ar
    15    11    14   1
    16    12    13  ar
    17    12    26   1
    18    14    15   2
    19    14    16   1
    20    16    17  ar
    21    16    21  ar
    22    17    18  ar
    23    17    24   1
    24    18    19  ar
    25    18    25   1
    26    19    20  ar
    27    20    21  ar
    28    21    22   1
    29    22    23   1
    30    27    28   1
    31    27    29   2
    32    27    30   2
    33     2    31   1
    34     2    32   1
    35     3    33   1
    36     3    34   1
    37     4    35   1
    38     5    36   1
    39     5    37   1
    40     6    38   1
    41     6    39   1
    42     7    40   1
    43    10    41   1
    44    19    42   1
    45    20    43   1
    46    23    44   1
    47    23    45   1
    48    23    46   1
    49    26    47   1
    50    26    48   1
    51    28    49   1
    52    28    50   1
    53    28    51   1
@<TRIPOS>SUBSTRUCTURE
     1  LIA      2

