@<TRIPOS>MOLECULE
2fvd_ligand_000
    51    53
SMALL
GAST_HUCK
****
This file was generated by PARSER (from files_GN.cpp)

@<TRIPOS>ATOM
      1 N1          5.8277   27.2179    7.2080 N.am        1 LIA      -0.2385
      2 C2          5.2997   27.6443    5.9377 C.3         1 LIA       0.0314
      3 C3          3.8146   27.2123    5.8181 C.3         1 LIA      -0.0122
      4 C4          2.9817   27.7128    7.0329 C.3         1 LIA       0.0456
      5 C5          3.6673   27.3170    8.3762 C.3         1 LIA      -0.0122
      6 C6          5.1694   27.7121    8.3944 C.3         1 LIA       0.0314
      7 N7          2.8042   29.1361    6.9547 N.pl3       1 LIA      -0.2866
      8 C8          1.7429   29.8196    7.4392 C.ar        1 LIA       0.1789
      9 N9          0.7266   29.2139    8.0983 N.ar        1 LIA      -0.2656
     10 C10        -0.3379   29.9071    8.5635 C.ar        1 LIA       0.0186
     11 C11        -0.4637   31.3058    8.3576 C.ar        1 LIA       0.0852
     12 C12         0.6643   31.9141    7.7213 C.ar        1 LIA       0.1302
     13 N13         1.6996   31.1585    7.2778 N.ar        1 LIA      -0.2356
     14 C14        -1.5962   32.0214    8.8127 C.2         1 LIA       0.1492
     15 O15        -1.5662   33.2425    8.7611 O.2         1 LIA      -0.3856
     16 C16        -2.7244   31.4858    9.4661 C.ar        1 LIA       0.0920
     17 C17        -3.1117   32.0145   10.7339 C.ar        1 LIA       0.1766
     18 C18        -4.1982   31.4713   11.4476 C.ar        1 LIA       0.1591
     19 C19        -4.8943   30.3680   10.9316 C.ar        1 LIA      -0.0338
     20 C20        -4.5536   29.8519    9.6704 C.ar        1 LIA      -0.0322
     21 C21        -3.5031   30.4258    8.9116 C.ar        1 LIA       0.1052
     22 O22        -3.1644   29.8857    7.6913 O.3         1 LIA      -0.3192
     23 C23        -4.1852   29.7694    6.6826 C.3         1 LIA       0.0603
     24 F24        -2.4450   32.9887   11.3002 F           1 LIA      -0.1811
     25 F25        -4.5628   31.9719   12.5975 F           1 LIA      -0.1924
     26 N26         0.8523   33.2314    7.5353 N.pl3       1 LIA      -0.3135
     27 S27         6.7118   25.7715    7.3101 S.o2        1 LIA       0.0385
     28 C28         7.7584   25.3667    5.9008 C.3         1 LIA       0.0734
     29 O29         5.7616   24.5364    7.6204 O.2         1 LIA      -0.1556
     30 O30         7.7316   25.9184    8.5201 O.2         1 LIA      -0.1556
     31 H1          5.8600   27.2451    5.0897 H           1 LIA       0.0479
     32 H2          5.3664   28.7326    5.8685 H           1 LIA       0.0479
     33 H3          3.7644   26.1193    5.7815 H           1 LIA       0.0304
     34 H4          3.3853   27.5953    4.8877 H           1 LIA       0.0304
     35 H5          2.0041   27.2191    6.9800 H           1 LIA       0.0563
     36 H6          3.5844   26.2347    8.5080 H           1 LIA       0.0304
     37 H7          3.1526   27.7902    9.2173 H           1 LIA       0.0304
     38 H8          5.2579   28.8020    8.4275 H           1 LIA       0.0479
     39 H9          5.6243   27.3333    9.3127 H           1 LIA       0.0479
     40 H10         3.4987   29.6590    6.5217 H           1 LIA       0.1881
     41 H11        -1.0373   29.3757    9.0806 H           1 LIA       0.0904
     42 H12        -5.6515   29.9444   11.4713 H           1 LIA       0.0605
     43 H13        -5.0683   29.0419    9.3200 H           1 LIA       0.0512
     44 H14        -3.6997   29.4520    5.7561 H           1 LIA       0.0579
     45 H15        -4.6834   30.7220    6.5005 H           1 LIA       0.0579
     46 H16        -4.9212   29.0120    6.9555 H           1 LIA       0.0579
     47 H17         1.6815   33.5465    7.1353 H           1 LIA       0.1831
     48 H18         0.1999   33.8757    7.8386 H           1 LIA       0.1831
     49 H19         8.3566   24.4874    6.1424 H           1 LIA       0.0482
     50 H20         8.4226   26.2022    5.6838 H           1 LIA       0.0482
     51 H21         7.1425   25.1509    5.0275 H           1 LIA       0.0482
@<TRIPOS>BOND
     1     1     2   1
     2     1     6   1
     3     1    27  am
     4     2     3   1
     5     3     4   1
     6     4     5   1
     7     4     7   1
     8     5     6   1
     9     7     8   1
    10     8     9  ar
    11     8    13  ar
    12     9    10  ar
    13    10    11  ar
    14    11    12  ar
    15    11    14   1
    16    12    13  ar
    17    12    26   1
    18    14    15   2
    19    14    16   1
    20    16    17  ar
    21    16    21  ar
    22    17    18  ar
    23    17    24   1
    24    18    19  ar
    25    18    25   1
    26    19    20  ar
    27    20    21  ar
    28    21    22   1
    29    22    23   1
    30    27    28   1
    31    27    29   2
    32    27    30   2
    33     2    31   1
    34     2    32   1
    35     3    33   1
    36     3    34   1
    37     4    35   1
    38     5    36   1
    39     5    37   1
    40     6    38   1
    41     6    39   1
    42     7    40   1
    43    10    41   1
    44    19    42   1
    45    20    43   1
    46    23    44   1
    47    23    45   1
    48    23    46   1
    49    26    47   1
    50    26    48   1
    51    28    49   1
    52    28    50   1
    53    28    51   1
@<TRIPOS>SUBSTRUCTURE
     1  LIA      2

