@<TRIPOS>MOLECULE
2fvd_ligand_063
    51    53
SMALL
GAST_HUCK
****
This file was generated by PARSER (from files_GN.cpp)

@<TRIPOS>ATOM
      1 N1          7.7459   20.8909    9.7586 N.am        1 LIA      -0.2385
      2 C2          7.7385   20.5530   11.1632 C.3         1 LIA       0.0314
      3 C3          6.3880   20.8875   11.8496 C.3         1 LIA      -0.0122
      4 C4          5.9302   22.3357   11.5145 C.3         1 LIA       0.0456
      5 C5          5.9224   22.5563    9.9748 C.3         1 LIA      -0.0122
      6 C6          7.2894   22.1922    9.3445 C.3         1 LIA       0.0314
      7 N7          4.6931   22.7141   12.1368 N.pl3       1 LIA      -0.2866
      8 C8          3.4396   22.3683   11.7681 C.ar        1 LIA       0.1789
      9 N9          2.4063   22.9281   12.4407 N.ar        1 LIA      -0.2656
     10 C10         1.1151   22.6603   12.1265 C.ar        1 LIA       0.0186
     11 C11         0.7682   21.7532   11.0860 C.ar        1 LIA       0.0852
     12 C12         1.8857   21.1900   10.4011 C.ar        1 LIA       0.1302
     13 N13         3.1539   21.5123   10.7536 N.ar        1 LIA      -0.2356
     14 C14        -0.5760   21.4892   10.7471 C.2         1 LIA       0.1492
     15 O15        -0.8645   20.6516    9.8963 O.2         1 LIA      -0.3856
     16 C16        -1.6684   22.1940   11.2541 C.ar        1 LIA       0.0920
     17 C17        -1.9963   22.1365   12.6354 C.ar        1 LIA       0.1766
     18 C18        -3.1071   22.8455   13.1376 C.ar        1 LIA       0.1591
     19 C19        -3.9077   23.6079   12.2679 C.ar        1 LIA      -0.0338
     20 C20        -3.6054   23.6584   10.8978 C.ar        1 LIA      -0.0322
     21 C21        -2.4803   22.9773   10.3879 C.ar        1 LIA       0.1052
     22 O22        -2.2197   23.0719    9.0450 O.3         1 LIA      -0.3192
     23 C23        -1.3103   24.1311    8.7011 C.3         1 LIA       0.0603
     24 F24        -1.2777   21.4375   13.4741 F           1 LIA      -0.1811
     25 F25        -3.4125   22.7994   14.4082 F           1 LIA      -0.1924
     26 N26         1.8136   20.3332    9.3597 N.pl3       1 LIA      -0.3135
     27 S27         8.7363   20.0080    8.6987 S.o2        1 LIA       0.0385
     28 C28         7.8273   19.2377    7.3456 C.3         1 LIA       0.0734
     29 O29         9.5579   18.8912    9.4775 O.2         1 LIA      -0.1556
     30 O30         9.8657   20.9491    8.0898 O.2         1 LIA      -0.1556
     31 H1          8.5421   21.1057   11.6582 H           1 LIA       0.0479
     32 H2          7.9297   19.4835   11.3156 H           1 LIA       0.0479
     33 H3          6.4887   20.7765   12.9314 H           1 LIA       0.0304
     34 H4          5.6460   20.1666   11.5058 H           1 LIA       0.0304
     35 H5          6.6772   23.0132   11.9396 H           1 LIA       0.0563
     36 H6          5.6979   23.6046    9.7534 H           1 LIA       0.0304
     37 H7          5.1525   21.9370    9.5058 H           1 LIA       0.0304
     38 H8          7.1673   22.2443    8.2579 H           1 LIA       0.0479
     39 H9          8.0367   22.9355    9.6310 H           1 LIA       0.0479
     40 H10         4.7537   23.3205   12.8954 H           1 LIA       0.1881
     41 H11         0.4007   23.1470   12.6669 H           1 LIA       0.0904
     42 H12        -4.7164   24.1188   12.6298 H           1 LIA       0.0605
     43 H13        -4.2039   24.2035   10.2728 H           1 LIA       0.0512
     44 H14        -1.1586   24.1146    7.6178 H           1 LIA       0.0579
     45 H15        -0.3341   23.9984    9.1759 H           1 LIA       0.0579
     46 H16        -1.7149   25.1092    8.9714 H           1 LIA       0.0579
     47 H17         2.6311   20.0035    8.9540 H           1 LIA       0.1831
     48 H18         0.9629   20.0344    9.0071 H           1 LIA       0.1831
     49 H19         8.5157   18.6811    6.7070 H           1 LIA       0.0482
     50 H20         7.3284   20.0078    6.7541 H           1 LIA       0.0482
     51 H21         7.0793   18.5551    7.7533 H           1 LIA       0.0482
@<TRIPOS>BOND
     1     1     2   1
     2     1     6   1
     3     1    27  am
     4     2     3   1
     5     3     4   1
     6     4     5   1
     7     4     7   1
     8     5     6   1
     9     7     8   1
    10     8     9  ar
    11     8    13  ar
    12     9    10  ar
    13    10    11  ar
    14    11    12  ar
    15    11    14   1
    16    12    13  ar
    17    12    26   1
    18    14    15   2
    19    14    16   1
    20    16    17  ar
    21    16    21  ar
    22    17    18  ar
    23    17    24   1
    24    18    19  ar
    25    18    25   1
    26    19    20  ar
    27    20    21  ar
    28    21    22   1
    29    22    23   1
    30    27    28   1
    31    27    29   2
    32    27    30   2
    33     2    31   1
    34     2    32   1
    35     3    33   1
    36     3    34   1
    37     4    35   1
    38     5    36   1
    39     5    37   1
    40     6    38   1
    41     6    39   1
    42     7    40   1
    43    10    41   1
    44    19    42   1
    45    20    43   1
    46    23    44   1
    47    23    45   1
    48    23    46   1
    49    26    47   1
    50    26    48   1
    51    28    49   1
    52    28    50   1
    53    28    51   1
@<TRIPOS>SUBSTRUCTURE
     1  LIA      2

