@<TRIPOS>MOLECULE
2fvd_ligand_005
    51    53
SMALL
GAST_HUCK
****
This file was generated by PARSER (from files_GN.cpp)

@<TRIPOS>ATOM
      1 N1         -5.8861   23.2332   20.4142 N.am        1 LIA      -0.2385
      2 C2         -4.6866   22.4269   20.3745 C.3         1 LIA       0.0314
      3 C3         -4.1908   22.2135   18.9199 C.3         1 LIA      -0.0122
      4 C4         -5.3287   21.7341   17.9751 C.3         1 LIA       0.0456
      5 C5         -6.5836   22.6377   18.1238 C.3         1 LIA      -0.0122
      6 C6         -6.9995   22.7937   19.6100 C.3         1 LIA       0.0314
      7 N7         -4.9310   21.5799   16.5989 N.pl3       1 LIA      -0.2866
      8 C8         -4.1997   22.4282   15.8350 C.ar        1 LIA       0.1789
      9 N9         -3.9671   22.1116   14.5369 N.ar        1 LIA      -0.2656
     10 C10        -3.2301   22.9069   13.7219 C.ar        1 LIA       0.0186
     11 C11        -2.6871   24.1192   14.2085 C.ar        1 LIA       0.0852
     12 C12        -2.9302   24.4230   15.5686 C.ar        1 LIA       0.1302
     13 N13        -3.6657   23.5760   16.3285 N.ar        1 LIA      -0.2356
     14 C14        -1.9125   24.9335   13.3900 C.2         1 LIA       0.1492
     15 O15        -0.7678   24.5464   13.1875 O.2         1 LIA      -0.3856
     16 C16        -2.3383   26.1839   12.8984 C.ar        1 LIA       0.0920
     17 C17        -1.4070   27.2500   12.7353 C.ar        1 LIA       0.1766
     18 C18        -1.7990   28.4726   12.1489 C.ar        1 LIA       0.1591
     19 C19        -3.1233   28.6591   11.7280 C.ar        1 LIA      -0.0338
     20 C20        -4.0620   27.6338   11.9079 C.ar        1 LIA      -0.0322
     21 C21        -3.6930   26.4028   12.5044 C.ar        1 LIA       0.1052
     22 O22        -4.5986   25.3639   12.5409 O.3         1 LIA      -0.3192
     23 C23        -5.9592   25.6579   12.9130 C.3         1 LIA       0.0603
     24 F24        -0.1580   27.1293   13.1100 F           1 LIA      -0.1811
     25 F25        -0.9324   29.4335   11.9583 F           1 LIA      -0.1924
     26 N26        -2.4188   25.5050   16.1841 N.pl3       1 LIA      -0.3135
     27 S27        -6.1972   24.2280   21.7528 S.o2        1 LIA       0.0385
     28 C28        -6.9961   25.8051   21.3792 C.3         1 LIA       0.0734
     29 O29        -4.8442   24.6320   22.4834 O.2         1 LIA      -0.1556
     30 O30        -7.0484   23.4419   22.8423 O.2         1 LIA      -0.1556
     31 H1         -4.8901   21.4553   20.8417 H           1 LIA       0.0479
     32 H2         -3.8680   22.8898   20.9343 H           1 LIA       0.0479
     33 H3         -3.3775   21.4807   18.9155 H           1 LIA       0.0304
     34 H4         -3.7850   23.1665   18.5673 H           1 LIA       0.0304
     35 H5         -5.6173   20.7318   18.3067 H           1 LIA       0.0563
     36 H6         -7.4180   22.2065   17.5601 H           1 LIA       0.0304
     37 H7         -6.3775   23.6333   17.7155 H           1 LIA       0.0304
     38 H8         -7.8395   23.4906   19.6491 H           1 LIA       0.0479
     39 H9         -7.3528   21.8308   19.9932 H           1 LIA       0.0479
     40 H10        -5.2497   20.7776   16.1507 H           1 LIA       0.1881
     41 H11        -3.1057   22.6182   12.7466 H           1 LIA       0.0904
     42 H12        -3.3958   29.5289   11.2624 H           1 LIA       0.0605
     43 H13        -5.0204   27.7853   11.5820 H           1 LIA       0.0512
     44 H14        -6.4223   24.7284   13.2479 H           1 LIA       0.0579
     45 H15        -6.5193   26.0243   12.0504 H           1 LIA       0.0579
     46 H16        -6.0208   26.3869   13.7248 H           1 LIA       0.0579
     47 H17        -2.6144   25.6488   17.1205 H           1 LIA       0.1831
     48 H18        -1.8271   26.1236   15.7133 H           1 LIA       0.1831
     49 H19        -7.1410   26.3730   22.3021 H           1 LIA       0.0482
     50 H20        -7.9694   25.6326   20.9157 H           1 LIA       0.0482
     51 H21        -6.3683   26.3842   20.6986 H           1 LIA       0.0482
@<TRIPOS>BOND
     1     1     2   1
     2     1     6   1
     3     1    27  am
     4     2     3   1
     5     3     4   1
     6     4     5   1
     7     4     7   1
     8     5     6   1
     9     7     8   1
    10     8     9  ar
    11     8    13  ar
    12     9    10  ar
    13    10    11  ar
    14    11    12  ar
    15    11    14   1
    16    12    13  ar
    17    12    26   1
    18    14    15   2
    19    14    16   1
    20    16    17  ar
    21    16    21  ar
    22    17    18  ar
    23    17    24   1
    24    18    19  ar
    25    18    25   1
    26    19    20  ar
    27    20    21  ar
    28    21    22   1
    29    22    23   1
    30    27    28   1
    31    27    29   2
    32    27    30   2
    33     2    31   1
    34     2    32   1
    35     3    33   1
    36     3    34   1
    37     4    35   1
    38     5    36   1
    39     5    37   1
    40     6    38   1
    41     6    39   1
    42     7    40   1
    43    10    41   1
    44    19    42   1
    45    20    43   1
    46    23    44   1
    47    23    45   1
    48    23    46   1
    49    26    47   1
    50    26    48   1
    51    28    49   1
    52    28    50   1
    53    28    51   1
@<TRIPOS>SUBSTRUCTURE
     1  LIA      2

