@<TRIPOS>MOLECULE
2fvd_ligand_019
    51    53
SMALL
GAST_HUCK
****
This file was generated by PARSER (from files_GN.cpp)

@<TRIPOS>ATOM
      1 N1         -8.7527   21.1032   21.6966 N.am        1 LIA      -0.2385
      2 C2         -8.7860   21.9350   20.5207 C.3         1 LIA       0.0314
      3 C3         -7.7092   23.0481   20.6331 C.3         1 LIA      -0.0122
      4 C4         -6.2934   22.4436   20.8953 C.3         1 LIA       0.0456
      5 C5         -6.3491   21.4598   22.1040 C.3         1 LIA      -0.0122
      6 C6         -7.5064   20.4296   21.9751 C.3         1 LIA       0.0314
      7 N7         -5.7785   21.7737   19.7346 N.pl3       1 LIA      -0.2866
      8 C8         -5.4147   22.3659   18.5736 C.ar        1 LIA       0.1789
      9 N9         -5.0459   21.5742   17.5370 N.ar        1 LIA      -0.2656
     10 C10        -4.7009   22.0846   16.3279 C.ar        1 LIA       0.0186
     11 C11        -4.7176   23.4801   16.1128 C.ar        1 LIA       0.0852
     12 C12        -5.0683   24.2926   17.2197 C.ar        1 LIA       0.1302
     13 N13        -5.4172   23.7132   18.3972 N.ar        1 LIA      -0.2356
     14 C14        -4.3726   24.0002   14.8726 C.2         1 LIA       0.1492
     15 O15        -3.1983   24.3382   14.7907 O.2         1 LIA      -0.3856
     16 C16        -5.2671   24.2381   13.8018 C.ar        1 LIA       0.0920
     17 C17        -6.6828   24.3145   13.9813 C.ar        1 LIA       0.1766
     18 C18        -7.5446   24.6383   12.9106 C.ar        1 LIA       0.1591
     19 C19        -7.0226   24.8681   11.6284 C.ar        1 LIA      -0.0338
     20 C20        -5.6435   24.7613   11.4135 C.ar        1 LIA      -0.0322
     21 C21        -4.7719   24.4344   12.4746 C.ar        1 LIA       0.1052
     22 O22        -3.4369   24.3412   12.1650 O.3         1 LIA      -0.3192
     23 C23        -3.0521   23.0440   11.6713 C.3         1 LIA       0.0603
     24 F24        -7.2536   24.1166   15.1413 F           1 LIA      -0.1811
     25 F25        -8.8358   24.7414   13.0938 F           1 LIA      -0.1924
     26 N26        -5.1079   25.6345   17.1557 N.pl3       1 LIA      -0.3135
     27 S27        -9.8728   21.3978   22.9361 S.o2        1 LIA       0.0385
     28 C28       -11.5945   21.3132   22.4013 C.3         1 LIA       0.0734
     29 O29        -9.5928   22.8036   23.6254 O.2         1 LIA      -0.1556
     30 O30        -9.7532   20.2920   24.0736 O.2         1 LIA      -0.1556
     31 H1         -9.7648   22.3914   20.3582 H           1 LIA       0.0479
     32 H2         -8.5780   21.3170   19.6423 H           1 LIA       0.0479
     33 H3         -7.9670   23.7194   21.4573 H           1 LIA       0.0304
     34 H4         -7.7143   23.6434   19.7177 H           1 LIA       0.0304
     35 H5         -5.6016   23.2507   21.1572 H           1 LIA       0.0563
     36 H6         -6.4959   22.0372   23.0211 H           1 LIA       0.0304
     37 H7         -5.3970   20.9300   22.1989 H           1 LIA       0.0304
     38 H8         -7.2900   19.7428   21.1523 H           1 LIA       0.0479
     39 H9         -7.5497   19.8249   22.8836 H           1 LIA       0.0479
     40 H10        -5.6922   20.8085   19.7794 H           1 LIA       0.1881
     41 H11        -4.4420   21.4351   15.5826 H           1 LIA       0.0904
     42 H12        -7.6437   25.1022   10.8484 H           1 LIA       0.0605
     43 H13        -5.2734   24.9159   10.4730 H           1 LIA       0.0512
     44 H14        -1.9710   23.0410   11.5284 H           1 LIA       0.0579
     45 H15        -3.5218   22.8324   10.7067 H           1 LIA       0.0579
     46 H16        -3.3034   22.2514   12.3820 H           1 LIA       0.0579
     47 H17        -5.3719   26.1467   17.9360 H           1 LIA       0.1831
     48 H18        -4.8805   26.0983   16.3339 H           1 LIA       0.1831
     49 H19       -12.2517   21.4207   23.2645 H           1 LIA       0.0482
     50 H20       -11.7806   20.3513   21.9242 H           1 LIA       0.0482
     51 H21       -11.8060   22.1143   21.6937 H           1 LIA       0.0482
@<TRIPOS>BOND
     1     1     2   1
     2     1     6   1
     3     1    27  am
     4     2     3   1
     5     3     4   1
     6     4     5   1
     7     4     7   1
     8     5     6   1
     9     7     8   1
    10     8     9  ar
    11     8    13  ar
    12     9    10  ar
    13    10    11  ar
    14    11    12  ar
    15    11    14   1
    16    12    13  ar
    17    12    26   1
    18    14    15   2
    19    14    16   1
    20    16    17  ar
    21    16    21  ar
    22    17    18  ar
    23    17    24   1
    24    18    19  ar
    25    18    25   1
    26    19    20  ar
    27    20    21  ar
    28    21    22   1
    29    22    23   1
    30    27    28   1
    31    27    29   2
    32    27    30   2
    33     2    31   1
    34     2    32   1
    35     3    33   1
    36     3    34   1
    37     4    35   1
    38     5    36   1
    39     5    37   1
    40     6    38   1
    41     6    39   1
    42     7    40   1
    43    10    41   1
    44    19    42   1
    45    20    43   1
    46    23    44   1
    47    23    45   1
    48    23    46   1
    49    26    47   1
    50    26    48   1
    51    28    49   1
    52    28    50   1
    53    28    51   1
@<TRIPOS>SUBSTRUCTURE
     1  LIA      2

