@<TRIPOS>MOLECULE
2fvd_ligand_048
    51    53
SMALL
GAST_HUCK
****
This file was generated by PARSER (from files_GN.cpp)

@<TRIPOS>ATOM
      1 N1          0.8162   30.4609    8.3697 N.am        1 LIA      -0.2385
      2 C2          0.7986   29.0184    8.3597 C.3         1 LIA       0.0314
      3 C3          0.5492   28.5025    6.9175 C.3         1 LIA      -0.0122
      4 C4          1.5551   29.1151    5.8999 C.3         1 LIA       0.0456
      5 C5          1.6159   30.6609    6.0469 C.3         1 LIA      -0.0122
      6 C6          1.7891   31.1105    7.5219 C.3         1 LIA       0.0314
      7 N7          2.8595   28.5323    6.0796 N.pl3       1 LIA      -0.2866
      8 C8          3.5378   27.7840    5.1794 C.ar        1 LIA       0.1789
      9 N9          4.7480   27.2794    5.5291 N.ar        1 LIA      -0.2656
     10 C10         5.4807   26.5142    4.6798 C.ar        1 LIA       0.0186
     11 C11         5.0068   26.2267    3.3782 C.ar        1 LIA       0.0852
     12 C12         3.7384   26.7585    3.0371 C.ar        1 LIA       0.1302
     13 N13         3.0581   27.5057    3.9395 N.ar        1 LIA      -0.2356
     14 C14         5.7744   25.4758    2.4942 C.2         1 LIA       0.1492
     15 O15         5.9646   25.9006    1.3616 O.2         1 LIA      -0.3856
     16 C16         6.2914   24.2251    2.8132 C.ar        1 LIA       0.0920
     17 C17         7.6916   23.9898    2.7732 C.ar        1 LIA       0.1766
     18 C18         8.2058   22.6979    3.0109 C.ar        1 LIA       0.1591
     19 C19         7.3313   21.6295    3.2728 C.ar        1 LIA      -0.0338
     20 C20         5.9448   21.8507    3.3155 C.ar        1 LIA      -0.0322
     21 C21         5.4171   23.1430    3.1077 C.ar        1 LIA       0.1052
     22 O22         4.0535   23.3017    3.0505 O.3         1 LIA      -0.3192
     23 C23         3.3854   23.2975    4.3239 C.3         1 LIA       0.0603
     24 F24         8.5334   24.9642    2.5332 F           1 LIA      -0.1811
     25 F25         9.4929   22.4727    2.9719 F           1 LIA      -0.1924
     26 N26         3.1221   26.5265    1.8654 N.pl3       1 LIA      -0.3135
     27 S27        -0.5385   31.3201    8.9231 S.o2        1 LIA       0.0385
     28 C28        -1.2240   30.7472   10.4922 C.3         1 LIA       0.0734
     29 O29        -1.6862   31.3733    7.8238 O.2         1 LIA      -0.1556
     30 O30        -0.1223   32.8268    9.2210 O.2         1 LIA      -0.1556
     31 H1          0.0368   28.6017    9.0224 H           1 LIA       0.0479
     32 H2          1.7639   28.6482    8.7168 H           1 LIA       0.0479
     33 H3         -0.4692   28.7729    6.6220 H           1 LIA       0.0304
     34 H4          0.6187   27.4120    6.8995 H           1 LIA       0.0304
     35 H5          1.1768   28.9115    4.8955 H           1 LIA       0.0563
     36 H6          0.6903   31.0958    5.6582 H           1 LIA       0.0304
     37 H7          2.4377   31.0480    5.4418 H           1 LIA       0.0304
     38 H8          2.7928   30.8422    7.8619 H           1 LIA       0.0479
     39 H9          1.7218   32.2006    7.5661 H           1 LIA       0.0479
     40 H10         3.2861   28.6739    6.9404 H           1 LIA       0.1881
     41 H11         6.3904   26.1688    4.9961 H           1 LIA       0.0904
     42 H12         7.6989   20.6868    3.4237 H           1 LIA       0.0605
     43 H13         5.3165   21.0602    3.4785 H           1 LIA       0.0512
     44 H14         2.3325   23.5168    4.1483 H           1 LIA       0.0579
     45 H15         3.7841   24.0606    4.9957 H           1 LIA       0.0579
     46 H16         3.4555   22.3188    4.8036 H           1 LIA       0.0579
     47 H17         2.2418   26.9009    1.7009 H           1 LIA       0.1831
     48 H18         3.5300   25.9546    1.1991 H           1 LIA       0.1831
     49 H19        -1.9943   31.4413   10.8300 H           1 LIA       0.0482
     50 H20        -0.4344   30.6936   11.2421 H           1 LIA       0.0482
     51 H21        -1.6693   29.7609   10.3643 H           1 LIA       0.0482
@<TRIPOS>BOND
     1     1     2   1
     2     1     6   1
     3     1    27  am
     4     2     3   1
     5     3     4   1
     6     4     5   1
     7     4     7   1
     8     5     6   1
     9     7     8   1
    10     8     9  ar
    11     8    13  ar
    12     9    10  ar
    13    10    11  ar
    14    11    12  ar
    15    11    14   1
    16    12    13  ar
    17    12    26   1
    18    14    15   2
    19    14    16   1
    20    16    17  ar
    21    16    21  ar
    22    17    18  ar
    23    17    24   1
    24    18    19  ar
    25    18    25   1
    26    19    20  ar
    27    20    21  ar
    28    21    22   1
    29    22    23   1
    30    27    28   1
    31    27    29   2
    32    27    30   2
    33     2    31   1
    34     2    32   1
    35     3    33   1
    36     3    34   1
    37     4    35   1
    38     5    36   1
    39     5    37   1
    40     6    38   1
    41     6    39   1
    42     7    40   1
    43    10    41   1
    44    19    42   1
    45    20    43   1
    46    23    44   1
    47    23    45   1
    48    23    46   1
    49    26    47   1
    50    26    48   1
    51    28    49   1
    52    28    50   1
    53    28    51   1
@<TRIPOS>SUBSTRUCTURE
     1  LIA      2

