@<TRIPOS>MOLECULE
2fvd_ligand_081
    51    53
SMALL
GAST_HUCK
****
This file was generated by PARSER (from files_GN.cpp)

@<TRIPOS>ATOM
      1 N1         -6.5791   25.7789   19.4570 N.am        1 LIA      -0.2385
      2 C2         -5.8629   26.3083   18.3247 C.3         1 LIA       0.0314
      3 C3         -5.6147   25.2318   17.2442 C.3         1 LIA      -0.0122
      4 C4         -4.9324   23.9672   17.8419 C.3         1 LIA       0.0456
      5 C5         -5.7999   23.4423   19.0186 C.3         1 LIA      -0.0122
      6 C6         -6.0986   24.5573   20.0612 C.3         1 LIA       0.0314
      7 N7         -4.7500   22.9554   16.8426 N.pl3       1 LIA      -0.2866
      8 C8         -3.9182   23.0645   15.7797 C.ar        1 LIA       0.1789
      9 N9         -3.8855   22.0879   14.8425 N.ar        1 LIA      -0.2656
     10 C10        -3.0819   22.1687   13.7479 C.ar        1 LIA       0.0186
     11 C11        -2.2438   23.2933   13.5383 C.ar        1 LIA       0.0852
     12 C12        -2.2971   24.2993   14.5399 C.ar        1 LIA       0.1302
     13 N13        -3.1180   24.1434   15.6065 N.ar        1 LIA      -0.2356
     14 C14        -1.4102   23.3513   12.4105 C.2         1 LIA       0.1492
     15 O15        -0.9099   22.3270   11.9647 O.2         1 LIA      -0.3856
     16 C16        -1.1112   24.5195   11.7267 C.ar        1 LIA       0.0920
     17 C17         0.1927   25.0774   11.8013 C.ar        1 LIA       0.1766
     18 C18         0.4911   26.2715   11.1125 C.ar        1 LIA       0.1591
     19 C19        -0.4877   26.8904   10.3140 C.ar        1 LIA      -0.0338
     20 C20        -1.7703   26.3282   10.2208 C.ar        1 LIA      -0.0322
     21 C21        -2.1051   25.1656   10.9463 C.ar        1 LIA       0.1052
     22 O22        -3.3558   24.6186   10.7928 O.3         1 LIA      -0.3192
     23 C23        -4.4021   25.3137   11.4945 C.3         1 LIA       0.0603
     24 F24         1.1216   24.5379   12.5539 F           1 LIA      -0.1811
     25 F25         1.6707   26.8267   11.2126 F           1 LIA      -0.1924
     26 N26        -1.5611   25.4242   14.5352 N.pl3       1 LIA      -0.3135
     27 S27        -7.4248   26.8809   20.4237 S.o2        1 LIA       0.0385
     28 C28        -8.5954   27.9104   19.5168 C.3         1 LIA       0.0734
     29 O29        -6.4196   27.8063   21.2383 O.2         1 LIA      -0.1556
     30 O30        -8.3164   26.1017   21.4887 O.2         1 LIA      -0.1556
     31 H1         -4.9068   26.7154   18.6637 H           1 LIA       0.0479
     32 H2         -6.4036   27.1096   17.8202 H           1 LIA       0.0479
     33 H3         -4.9899   25.6900   16.4738 H           1 LIA       0.0304
     34 H4         -6.5662   24.9471   16.7737 H           1 LIA       0.0304
     35 H5         -3.9554   24.2404   18.2472 H           1 LIA       0.0563
     36 H6         -5.2776   22.6185   19.5181 H           1 LIA       0.0304
     37 H7         -6.7489   23.0557   18.6294 H           1 LIA       0.0304
     38 H8         -6.8215   24.1427   20.7723 H           1 LIA       0.0479
     39 H9         -5.1838   24.7796   20.6179 H           1 LIA       0.0479
     40 H10        -5.2575   22.1339   16.9343 H           1 LIA       0.1881
     41 H11        -3.1060   21.3953   13.0782 H           1 LIA       0.0904
     42 H12        -0.2671   27.7393    9.7866 H           1 LIA       0.0605
     43 H13        -2.4600   26.7609    9.6051 H           1 LIA       0.0512
     44 H14        -5.3410   24.7878   11.3163 H           1 LIA       0.0579
     45 H15        -4.5113   26.3402   11.1349 H           1 LIA       0.0579
     46 H16        -4.2151   25.3252   12.5696 H           1 LIA       0.0579
     47 H17        -1.6284   26.0627   15.2577 H           1 LIA       0.1831
     48 H18        -0.9345   25.5965   13.8244 H           1 LIA       0.1831
     49 H19        -9.1341   28.5528   20.2157 H           1 LIA       0.0482
     50 H20        -9.3057   27.2788   18.9783 H           1 LIA       0.0482
     51 H21        -8.0659   28.5425   18.8025 H           1 LIA       0.0482
@<TRIPOS>BOND
     1     1     2   1
     2     1     6   1
     3     1    27  am
     4     2     3   1
     5     3     4   1
     6     4     5   1
     7     4     7   1
     8     5     6   1
     9     7     8   1
    10     8     9  ar
    11     8    13  ar
    12     9    10  ar
    13    10    11  ar
    14    11    12  ar
    15    11    14   1
    16    12    13  ar
    17    12    26   1
    18    14    15   2
    19    14    16   1
    20    16    17  ar
    21    16    21  ar
    22    17    18  ar
    23    17    24   1
    24    18    19  ar
    25    18    25   1
    26    19    20  ar
    27    20    21  ar
    28    21    22   1
    29    22    23   1
    30    27    28   1
    31    27    29   2
    32    27    30   2
    33     2    31   1
    34     2    32   1
    35     3    33   1
    36     3    34   1
    37     4    35   1
    38     5    36   1
    39     5    37   1
    40     6    38   1
    41     6    39   1
    42     7    40   1
    43    10    41   1
    44    19    42   1
    45    20    43   1
    46    23    44   1
    47    23    45   1
    48    23    46   1
    49    26    47   1
    50    26    48   1
    51    28    49   1
    52    28    50   1
    53    28    51   1
@<TRIPOS>SUBSTRUCTURE
     1  LIA      2

