@<TRIPOS>MOLECULE
2fvd_ligand_076
    51    53
SMALL
GAST_HUCK
****
This file was generated by PARSER (from files_GN.cpp)

@<TRIPOS>ATOM
      1 N1          8.9640   20.3179   10.9668 N.am        1 LIA      -0.2385
      2 C2          8.3619   21.0699   12.0461 C.3         1 LIA       0.0314
      3 C3          6.9697   21.6385   11.6619 C.3         1 LIA      -0.0122
      4 C4          7.0271   22.3944   10.3060 C.3         1 LIA       0.0456
      5 C5          7.6300   21.4595    9.2184 C.3         1 LIA      -0.0122
      6 C6          9.0140   20.9252    9.6588 C.3         1 LIA       0.0314
      7 N7          5.7226   22.8647    9.9322 N.pl3       1 LIA      -0.2866
      8 C8          5.4686   23.7535    8.9476 C.ar        1 LIA       0.1789
      9 N9          4.1896   24.1318    8.7142 N.ar        1 LIA      -0.2656
     10 C10         3.8790   25.0176    7.7353 C.ar        1 LIA       0.0186
     11 C11         4.8805   25.5712    6.9001 C.ar        1 LIA       0.0852
     12 C12         6.2159   25.1879    7.1938 C.ar        1 LIA       0.1302
     13 N13         6.4545   24.2991    8.1894 N.ar        1 LIA      -0.2356
     14 C14         4.5323   26.4404    5.8705 C.2         1 LIA       0.1492
     15 O15         3.6203   27.2391    6.0642 O.2         1 LIA      -0.3856
     16 C16         5.1027   26.4144    4.5975 C.ar        1 LIA       0.0920
     17 C17         5.5586   27.6272    4.0095 C.ar        1 LIA       0.1766
     18 C18         6.1272   27.6294    2.7217 C.ar        1 LIA       0.1591
     19 C19         6.2024   26.4351    1.9871 C.ar        1 LIA      -0.0338
     20 C20         5.7445   25.2302    2.5461 C.ar        1 LIA      -0.0322
     21 C21         5.2301   25.2000    3.8603 C.ar        1 LIA       0.1052
     22 O22         4.7054   24.0260    4.3583 O.3         1 LIA      -0.3192
     23 C23         5.6389   22.9485    4.5688 C.3         1 LIA       0.0603
     24 F24         5.4712   28.7658    4.6485 F           1 LIA      -0.1811
     25 F25         6.5743   28.7387    2.1918 F           1 LIA      -0.1924
     26 N26         7.3048   25.6727    6.5674 N.pl3       1 LIA      -0.3135
     27 S27        10.1332   19.1453   11.3241 S.o2        1 LIA       0.0385
     28 C28        10.0504   17.6850   10.2685 C.3         1 LIA       0.0734
     29 O29         9.9505   18.5816   12.8000 O.2         1 LIA      -0.1556
     30 O30        11.5922   19.7747   11.2669 O.2         1 LIA      -0.1556
     31 H1          9.0282   21.8998   12.3062 H           1 LIA       0.0479
     32 H2          8.2295   20.4598   12.9432 H           1 LIA       0.0479
     33 H3          6.6323   22.3196   12.4482 H           1 LIA       0.0304
     34 H4          6.2527   20.8165   11.5962 H           1 LIA       0.0304
     35 H5          7.6851   23.2623   10.4412 H           1 LIA       0.0563
     36 H6          7.7529   21.9953    8.2755 H           1 LIA       0.0304
     37 H7          6.9565   20.6181    9.0414 H           1 LIA       0.0304
     38 H8          9.3553   20.2207    8.8935 H           1 LIA       0.0479
     39 H9          9.7288   21.7562    9.6868 H           1 LIA       0.0479
     40 H10         4.9647   22.5471   10.4516 H           1 LIA       0.1881
     41 H11         2.8945   25.2519    7.5993 H           1 LIA       0.0904
     42 H12         6.5854   26.4378    1.0383 H           1 LIA       0.0605
     43 H13         5.7803   24.3745    1.9885 H           1 LIA       0.0512
     44 H14         5.1167   22.1482    5.0999 H           1 LIA       0.0579
     45 H15         6.4899   23.2553    5.1829 H           1 LIA       0.0579
     46 H16         6.0008   22.5509    3.6166 H           1 LIA       0.0579
     47 H17         8.1871   25.3566    6.8240 H           1 LIA       0.1831
     48 H18         7.2281   26.3736    5.9042 H           1 LIA       0.1831
     49 H19        10.7776   16.9482   10.6120 H           1 LIA       0.0482
     50 H20        10.2709   17.9595    9.2366 H           1 LIA       0.0482
     51 H21         9.0504   17.2545   10.3233 H           1 LIA       0.0482
@<TRIPOS>BOND
     1     1     2   1
     2     1     6   1
     3     1    27  am
     4     2     3   1
     5     3     4   1
     6     4     5   1
     7     4     7   1
     8     5     6   1
     9     7     8   1
    10     8     9  ar
    11     8    13  ar
    12     9    10  ar
    13    10    11  ar
    14    11    12  ar
    15    11    14   1
    16    12    13  ar
    17    12    26   1
    18    14    15   2
    19    14    16   1
    20    16    17  ar
    21    16    21  ar
    22    17    18  ar
    23    17    24   1
    24    18    19  ar
    25    18    25   1
    26    19    20  ar
    27    20    21  ar
    28    21    22   1
    29    22    23   1
    30    27    28   1
    31    27    29   2
    32    27    30   2
    33     2    31   1
    34     2    32   1
    35     3    33   1
    36     3    34   1
    37     4    35   1
    38     5    36   1
    39     5    37   1
    40     6    38   1
    41     6    39   1
    42     7    40   1
    43    10    41   1
    44    19    42   1
    45    20    43   1
    46    23    44   1
    47    23    45   1
    48    23    46   1
    49    26    47   1
    50    26    48   1
    51    28    49   1
    52    28    50   1
    53    28    51   1
@<TRIPOS>SUBSTRUCTURE
     1  LIA      2

