@<TRIPOS>MOLECULE
2fvd_ligand_043
    51    53
SMALL
GAST_HUCK
****
This file was generated by PARSER (from files_GN.cpp)

@<TRIPOS>ATOM
      1 N1          0.4494   21.1195   11.0698 N.am        1 LIA      -0.2385
      2 C2          0.7528   22.1758   12.0084 C.3         1 LIA       0.0314
      3 C3         -0.4244   23.1701   12.1887 C.3         1 LIA      -0.0122
      4 C4         -0.9757   23.6549   10.8250 C.3         1 LIA       0.0456
      5 C5         -1.3373   22.4330    9.9417 C.3         1 LIA      -0.0122
      6 C6         -0.1329   21.4637    9.7972 C.3         1 LIA       0.0314
      7 N7         -2.1416   24.4677   11.0252 N.pl3       1 LIA      -0.2866
      8 C8         -2.2232   25.8073   10.8945 C.ar        1 LIA       0.1789
      9 N9         -1.1763   26.6000   10.5393 N.ar        1 LIA      -0.2656
     10 C10        -1.2863   27.9474   10.4619 C.ar        1 LIA       0.0186
     11 C11        -2.5142   28.5887   10.7750 C.ar        1 LIA       0.0852
     12 C12        -3.5969   27.7379   11.1163 C.ar        1 LIA       0.1302
     13 N13        -3.4160   26.3955   11.1678 N.ar        1 LIA      -0.2356
     14 C14        -2.5929   29.9717   10.8100 C.2         1 LIA       0.1492
     15 O15        -3.1381   30.5082   11.7687 O.2         1 LIA      -0.3856
     16 C16        -2.1753   30.7865    9.7680 C.ar        1 LIA       0.0920
     17 C17        -0.9971   31.5671    9.9071 C.ar        1 LIA       0.1766
     18 C18        -0.5892   32.4298    8.8718 C.ar        1 LIA       0.1591
     19 C19        -1.3735   32.5558    7.7149 C.ar        1 LIA      -0.0338
     20 C20        -2.5578   31.8081    7.5840 C.ar        1 LIA      -0.0322
     21 C21        -2.9607   30.8933    8.5843 C.ar        1 LIA       0.1052
     22 O22        -4.1125   30.1233    8.5119 O.3         1 LIA      -0.3192
     23 C23        -4.8045   29.8732    7.2734 C.3         1 LIA       0.0603
     24 F24        -0.2559   31.4903   10.9831 F           1 LIA      -0.1811
     25 F25         0.5029   33.1465    8.9832 F           1 LIA      -0.1924
     26 N26        -4.8426   28.2022   11.3618 N.pl3       1 LIA      -0.3135
     27 S27         1.3344   19.6746   11.1667 S.o2        1 LIA       0.0385
     28 C28         0.3064   18.1922   11.0907 C.3         1 LIA       0.0734
     29 O29         2.1331   19.5615   12.5386 O.2         1 LIA      -0.1556
     30 O30         2.4404   19.6242   10.0254 O.2         1 LIA      -0.1556
     31 H1          1.6302   22.7191   11.6497 H           1 LIA       0.0479
     32 H2          0.9874   21.7752   12.9967 H           1 LIA       0.0479
     33 H3         -0.0793   24.0333   12.7653 H           1 LIA       0.0304
     34 H4         -1.2191   22.6789   12.7598 H           1 LIA       0.0304
     35 H5         -0.1889   24.2209   10.3136 H           1 LIA       0.0563
     36 H6         -1.6461   22.7850    8.9555 H           1 LIA       0.0304
     37 H7         -2.1769   21.8893   10.3861 H           1 LIA       0.0304
     38 H8         -0.4881   20.5739    9.2713 H           1 LIA       0.0479
     39 H9          0.6335   21.9302    9.1722 H           1 LIA       0.0479
     40 H10        -2.9429   24.0133   11.3304 H           1 LIA       0.1881
     41 H11        -0.4550   28.4893   10.2273 H           1 LIA       0.0904
     42 H12        -1.0893   33.2012    6.9768 H           1 LIA       0.0605
     43 H13        -3.1361   31.9512    6.7520 H           1 LIA       0.0512
     44 H14        -5.5221   29.0721    7.4332 H           1 LIA       0.0579
     45 H15        -4.1181   29.5661    6.4817 H           1 LIA       0.0579
     46 H16        -5.3518   30.7638    6.9621 H           1 LIA       0.0579
     47 H17        -5.5620   27.5806   11.5503 H           1 LIA       0.1831
     48 H18        -5.0290   29.1499   11.3069 H           1 LIA       0.1831
     49 H19         0.9232   17.3061   11.2455 H           1 LIA       0.0482
     50 H20        -0.1731   18.1270   10.1141 H           1 LIA       0.0482
     51 H21        -0.4581   18.2390   11.8662 H           1 LIA       0.0482
@<TRIPOS>BOND
     1     1     2   1
     2     1     6   1
     3     1    27  am
     4     2     3   1
     5     3     4   1
     6     4     5   1
     7     4     7   1
     8     5     6   1
     9     7     8   1
    10     8     9  ar
    11     8    13  ar
    12     9    10  ar
    13    10    11  ar
    14    11    12  ar
    15    11    14   1
    16    12    13  ar
    17    12    26   1
    18    14    15   2
    19    14    16   1
    20    16    17  ar
    21    16    21  ar
    22    17    18  ar
    23    17    24   1
    24    18    19  ar
    25    18    25   1
    26    19    20  ar
    27    20    21  ar
    28    21    22   1
    29    22    23   1
    30    27    28   1
    31    27    29   2
    32    27    30   2
    33     2    31   1
    34     2    32   1
    35     3    33   1
    36     3    34   1
    37     4    35   1
    38     5    36   1
    39     5    37   1
    40     6    38   1
    41     6    39   1
    42     7    40   1
    43    10    41   1
    44    19    42   1
    45    20    43   1
    46    23    44   1
    47    23    45   1
    48    23    46   1
    49    26    47   1
    50    26    48   1
    51    28    49   1
    52    28    50   1
    53    28    51   1
@<TRIPOS>SUBSTRUCTURE
     1  LIA      2

