@<TRIPOS>MOLECULE
2fvd_ligand_001
    51    53
SMALL
GAST_HUCK
****
This file was generated by PARSER (from files_GN.cpp)

@<TRIPOS>ATOM
      1 N1          5.0744   25.7358    7.7160 N.am        1 LIA      -0.2385
      2 C2          5.6689   26.9118    8.3067 C.3         1 LIA       0.0314
      3 C3          4.6943   28.1178    8.3990 C.3         1 LIA      -0.0122
      4 C4          3.9553   28.3386    7.0533 C.3         1 LIA       0.0456
      5 C5          3.2670   27.0214    6.6001 C.3         1 LIA      -0.0122
      6 C6          4.2946   25.8629    6.5077 C.3         1 LIA       0.0314
      7 N7          3.1360   29.5170    7.0734 N.pl3       1 LIA      -0.2866
      8 C8          1.8275   29.6785    7.3801 C.ar        1 LIA       0.1789
      9 N9          1.0025   28.6907    7.8108 N.ar        1 LIA      -0.2656
     10 C10        -0.3152   28.9064    8.0629 C.ar        1 LIA       0.0186
     11 C11        -0.8809   30.1884    7.8788 C.ar        1 LIA       0.0852
     12 C12        -0.0060   31.2016    7.4176 C.ar        1 LIA       0.1302
     13 N13         1.3059   30.9170    7.1963 N.ar        1 LIA      -0.2356
     14 C14        -2.2493   30.3764    8.0248 C.2         1 LIA       0.1492
     15 O15        -2.9401   29.8825    7.1406 O.2         1 LIA      -0.3856
     16 C16        -2.8608   30.7126    9.2383 C.ar        1 LIA       0.0920
     17 C17        -3.8468   29.8628    9.8144 C.ar        1 LIA       0.1766
     18 C18        -4.5435   30.2446   10.9776 C.ar        1 LIA       0.1591
     19 C19        -4.2952   31.4944   11.5682 C.ar        1 LIA      -0.0338
     20 C20        -3.3255   32.3469   11.0151 C.ar        1 LIA      -0.0322
     21 C21        -2.5731   31.9501    9.8846 C.ar        1 LIA       0.1052
     22 O22        -1.6232   32.8093    9.3757 O.3         1 LIA      -0.3192
     23 C23        -0.3652   32.7123   10.0717 C.3         1 LIA       0.0603
     24 F24        -4.1256   28.6910    9.2969 F           1 LIA      -0.1811
     25 F25        -5.4442   29.4597   11.5071 F           1 LIA      -0.1924
     26 N26        -0.4125   32.4579    7.1767 N.pl3       1 LIA      -0.3135
     27 S27         5.7108   24.2166    8.1222 S.o2        1 LIA       0.0385
     28 C28         7.4490   24.2017    8.6147 C.3         1 LIA       0.0734
     29 O29         5.6487   23.2308    6.8745 O.2         1 LIA      -0.1556
     30 O30         4.8258   23.5505    9.2638 O.2         1 LIA      -0.1556
     31 H1          6.5380   27.1982    7.7059 H           1 LIA       0.0479
     32 H2          6.0188   26.7028    9.3201 H           1 LIA       0.0479
     33 H3          5.2645   29.0149    8.6627 H           1 LIA       0.0304
     34 H4          3.9656   27.9361    9.1934 H           1 LIA       0.0304
     35 H5          4.7246   28.5631    6.3064 H           1 LIA       0.0563
     36 H6          2.7840   27.1697    5.6312 H           1 LIA       0.0304
     37 H7          2.5041   26.7268    7.3229 H           1 LIA       0.0304
     38 H8          3.7329   24.9473    6.3000 H           1 LIA       0.0479
     39 H9          4.9681   26.0393    5.6647 H           1 LIA       0.0479
     40 H10         3.5961   30.3193    6.7797 H           1 LIA       0.1881
     41 H11        -0.8914   28.1133    8.3598 H           1 LIA       0.0904
     42 H12        -4.8210   31.7863   12.3991 H           1 LIA       0.0605
     43 H13        -3.1649   33.2618   11.4466 H           1 LIA       0.0512
     44 H14         0.3651   33.3185    9.5368 H           1 LIA       0.0579
     45 H15         0.0104   31.6863   10.1082 H           1 LIA       0.0579
     46 H16        -0.4492   33.1014   11.0901 H           1 LIA       0.0579
     47 H17         0.2268   33.1287    6.8661 H           1 LIA       0.1831
     48 H18        -1.3366   32.7034    7.2893 H           1 LIA       0.1831
     49 H19         7.7738   23.1742    8.7801 H           1 LIA       0.0482
     50 H20         7.5806   24.7684    9.5359 H           1 LIA       0.0482
     51 H21         8.0526   24.6472    7.8244 H           1 LIA       0.0482
@<TRIPOS>BOND
     1     1     2   1
     2     1     6   1
     3     1    27  am
     4     2     3   1
     5     3     4   1
     6     4     5   1
     7     4     7   1
     8     5     6   1
     9     7     8   1
    10     8     9  ar
    11     8    13  ar
    12     9    10  ar
    13    10    11  ar
    14    11    12  ar
    15    11    14   1
    16    12    13  ar
    17    12    26   1
    18    14    15   2
    19    14    16   1
    20    16    17  ar
    21    16    21  ar
    22    17    18  ar
    23    17    24   1
    24    18    19  ar
    25    18    25   1
    26    19    20  ar
    27    20    21  ar
    28    21    22   1
    29    22    23   1
    30    27    28   1
    31    27    29   2
    32    27    30   2
    33     2    31   1
    34     2    32   1
    35     3    33   1
    36     3    34   1
    37     4    35   1
    38     5    36   1
    39     5    37   1
    40     6    38   1
    41     6    39   1
    42     7    40   1
    43    10    41   1
    44    19    42   1
    45    20    43   1
    46    23    44   1
    47    23    45   1
    48    23    46   1
    49    26    47   1
    50    26    48   1
    51    28    49   1
    52    28    50   1
    53    28    51   1
@<TRIPOS>SUBSTRUCTURE
     1  LIA      2

