@<TRIPOS>MOLECULE
2fvd_ligand_025
    51    53
SMALL
GAST_HUCK
****
This file was generated by PARSER (from files_GN.cpp)

@<TRIPOS>ATOM
      1 N1          5.7974   25.1226    7.1698 N.am        1 LIA      -0.2385
      2 C2          5.1371   25.2143    8.4476 C.3         1 LIA       0.0314
      3 C3          5.0142   26.7038    8.8674 C.3         1 LIA      -0.0122
      4 C4          4.3347   27.5574    7.7503 C.3         1 LIA       0.0456
      5 C5          5.0365   27.3129    6.3815 C.3         1 LIA      -0.0122
      6 C6          5.1708   25.7979    6.0628 C.3         1 LIA       0.0314
      7 N7          2.9345   27.2605    7.6526 N.pl3       1 LIA      -0.2866
      8 C8          1.9906   27.6160    8.5511 C.ar        1 LIA       0.1789
      9 N9          2.2641   28.3541    9.6592 N.ar        1 LIA      -0.2656
     10 C10         1.3005   28.7124   10.5402 C.ar        1 LIA       0.0186
     11 C11        -0.0462   28.3401   10.3154 C.ar        1 LIA       0.0852
     12 C12        -0.2959   27.5203    9.1858 C.ar        1 LIA       0.1302
     13 N13         0.7178   27.2027    8.3430 N.ar        1 LIA      -0.2356
     14 C14        -1.0347   28.6720   11.2281 C.2         1 LIA       0.1492
     15 O15        -1.2521   27.8220   12.0820 O.2         1 LIA      -0.3856
     16 C16        -1.8386   29.8294   11.1632 C.ar        1 LIA       0.0920
     17 C17        -1.3331   31.0724   10.6767 C.ar        1 LIA       0.1766
     18 C18        -2.1344   32.2319   10.6628 C.ar        1 LIA       0.1591
     19 C19        -3.4395   32.1855   11.1656 C.ar        1 LIA      -0.0338
     20 C20        -3.9566   30.9806   11.6620 C.ar        1 LIA      -0.0322
     21 C21        -3.1851   29.7977   11.6293 C.ar        1 LIA       0.1052
     22 O22        -3.7613   28.6429   12.1114 O.3         1 LIA      -0.3192
     23 C23        -4.9069   28.1643   11.3824 C.3         1 LIA       0.0603
     24 F24        -0.1012   31.2035   10.2574 F           1 LIA      -0.1811
     25 F25        -1.6682   33.3682   10.2177 F           1 LIA      -0.1924
     26 N26        -1.5052   27.0048    8.9026 N.pl3       1 LIA      -0.3135
     27 S27         7.4492   24.7340    7.1354 S.o2        1 LIA       0.0385
     28 C28         7.7393   22.9640    7.3442 C.3         1 LIA       0.0734
     29 O29         8.2081   25.5696    8.2558 O.2         1 LIA      -0.1556
     30 O30         8.1342   25.1741    5.7700 O.2         1 LIA      -0.1556
     31 H1          5.6649   24.6538    9.2214 H           1 LIA       0.0479
     32 H2          4.1376   24.7776    8.3660 H           1 LIA       0.0479
     33 H3          6.0123   27.1057    9.0600 H           1 LIA       0.0304
     34 H4          4.4512   26.7726    9.8015 H           1 LIA       0.0304
     35 H5          4.4481   28.6196    7.9912 H           1 LIA       0.0563
     36 H6          6.0379   27.7525    6.4146 H           1 LIA       0.0304
     37 H7          4.4832   27.8095    5.5816 H           1 LIA       0.0304
     38 H8          4.1755   25.3715    5.9045 H           1 LIA       0.0479
     39 H9          5.7189   25.6662    5.1271 H           1 LIA       0.0479
     40 H10         2.6338   26.7677    6.8709 H           1 LIA       0.1881
     41 H11         1.5692   29.2508   11.3648 H           1 LIA       0.0904
     42 H12        -4.0087   33.0348   11.1896 H           1 LIA       0.0605
     43 H13        -4.9024   30.9718   12.0547 H           1 LIA       0.0512
     44 H14        -5.2216   27.2202   11.8295 H           1 LIA       0.0579
     45 H15        -4.6774   27.9866   10.3273 H           1 LIA       0.0579
     46 H16        -5.7420   28.8658   11.4591 H           1 LIA       0.0579
     47 H17        -1.6082   26.4181    8.1395 H           1 LIA       0.1831
     48 H18        -2.2609   27.1795    9.4837 H           1 LIA       0.1831
     49 H19         8.7999   22.7435    7.2312 H           1 LIA       0.0482
     50 H20         7.1784   22.4111    6.5896 H           1 LIA       0.0482
     51 H21         7.4117   22.6525    8.3357 H           1 LIA       0.0482
@<TRIPOS>BOND
     1     1     2   1
     2     1     6   1
     3     1    27  am
     4     2     3   1
     5     3     4   1
     6     4     5   1
     7     4     7   1
     8     5     6   1
     9     7     8   1
    10     8     9  ar
    11     8    13  ar
    12     9    10  ar
    13    10    11  ar
    14    11    12  ar
    15    11    14   1
    16    12    13  ar
    17    12    26   1
    18    14    15   2
    19    14    16   1
    20    16    17  ar
    21    16    21  ar
    22    17    18  ar
    23    17    24   1
    24    18    19  ar
    25    18    25   1
    26    19    20  ar
    27    20    21  ar
    28    21    22   1
    29    22    23   1
    30    27    28   1
    31    27    29   2
    32    27    30   2
    33     2    31   1
    34     2    32   1
    35     3    33   1
    36     3    34   1
    37     4    35   1
    38     5    36   1
    39     5    37   1
    40     6    38   1
    41     6    39   1
    42     7    40   1
    43    10    41   1
    44    19    42   1
    45    20    43   1
    46    23    44   1
    47    23    45   1
    48    23    46   1
    49    26    47   1
    50    26    48   1
    51    28    49   1
    52    28    50   1
    53    28    51   1
@<TRIPOS>SUBSTRUCTURE
     1  LIA      2

