@<TRIPOS>MOLECULE
2fvd_ligand_015
    51    53
SMALL
GAST_HUCK
****
This file was generated by PARSER (from files_GN.cpp)

@<TRIPOS>ATOM
      1 N1         -6.5804   21.1803   19.8534 N.am        1 LIA      -0.2385
      2 C2         -6.5400   22.4378   19.1467 C.3         1 LIA       0.0314
      3 C3         -5.9752   22.3004   17.7110 C.3         1 LIA      -0.0122
      4 C4         -4.6571   21.4775   17.6864 C.3         1 LIA       0.0456
      5 C5         -4.8469   20.1230   18.4177 C.3         1 LIA      -0.0122
      6 C6         -5.4116   20.3361   19.8432 C.3         1 LIA       0.0314
      7 N7         -4.2203   21.2628   16.3354 N.pl3       1 LIA      -0.2866
      8 C8         -3.5441   22.1750   15.5999 C.ar        1 LIA       0.1789
      9 N9         -3.3021   21.9194   14.2931 N.ar        1 LIA      -0.2656
     10 C10        -2.6384   22.8042   13.4999 C.ar        1 LIA       0.0186
     11 C11        -2.1930   24.0339   14.0335 C.ar        1 LIA       0.0852
     12 C12        -2.4527   24.2770   15.4014 C.ar        1 LIA       0.1302
     13 N13        -3.1072   23.3441   16.1296 N.ar        1 LIA      -0.2356
     14 C14        -1.5392   24.9570   13.2463 C.2         1 LIA       0.1492
     15 O15        -0.3295   24.9810   13.4300 O.2         1 LIA      -0.3856
     16 C16        -2.1674   25.8483   12.3577 C.ar        1 LIA       0.0920
     17 C17        -3.5286   26.2597   12.5317 C.ar        1 LIA       0.1766
     18 C18        -4.1438   27.1423   11.6250 C.ar        1 LIA       0.1591
     19 C19        -3.4313   27.6249   10.5181 C.ar        1 LIA      -0.0338
     20 C20        -2.0941   27.2445   10.3237 C.ar        1 LIA      -0.0322
     21 C21        -1.4558   26.3889   11.2433 C.ar        1 LIA       0.1052
     22 O22        -0.1660   26.0147   10.9453 O.3         1 LIA      -0.3192
     23 C23         0.8374   26.9673   11.3413 C.3         1 LIA       0.0603
     24 F24        -4.2592   25.8635   13.5393 F           1 LIA      -0.1811
     25 F25        -5.3858   27.5178   11.7948 F           1 LIA      -0.1924
     26 N26        -2.1306   25.4129   16.0421 N.pl3       1 LIA      -0.3135
     27 S27        -7.6720   21.0103   21.1371 S.o2        1 LIA       0.0385
     28 C28        -9.0396   19.9171   20.7159 C.3         1 LIA       0.0734
     29 O29        -8.2487   22.4191   21.5962 O.2         1 LIA      -0.1556
     30 O30        -6.9373   20.4576   22.4359 O.2         1 LIA      -0.1556
     31 H1         -5.9201   23.1415   19.7129 H           1 LIA       0.0479
     32 H2         -7.5412   22.8697   19.0624 H           1 LIA       0.0479
     33 H3         -5.7955   23.2985   17.3036 H           1 LIA       0.0304
     34 H4         -6.7216   21.8173   17.0822 H           1 LIA       0.0304
     35 H5         -3.8875   22.0311   18.2376 H           1 LIA       0.0563
     36 H6         -3.8808   19.6181   18.4926 H           1 LIA       0.0304
     37 H7         -5.5202   19.4818   17.8488 H           1 LIA       0.0304
     38 H8         -5.6326   19.3498   20.2584 H           1 LIA       0.0479
     39 H9         -4.6407   20.7947   20.4697 H           1 LIA       0.0479
     40 H10        -4.5025   20.4467   15.8930 H           1 LIA       0.1881
     41 H11        -2.4854   22.5691   12.5172 H           1 LIA       0.0904
     42 H12        -3.8814   28.2503    9.8482 H           1 LIA       0.0605
     43 H13        -1.5901   27.5890    9.5064 H           1 LIA       0.0512
     44 H14         1.8168   26.5489   11.1013 H           1 LIA       0.0579
     45 H15         0.8132   27.1734   12.4144 H           1 LIA       0.0579
     46 H16         0.7222   27.9052   10.7955 H           1 LIA       0.0579
     47 H17        -2.3846   25.5199   16.9762 H           1 LIA       0.1831
     48 H18        -1.6649   26.1262   15.5810 H           1 LIA       0.1831
     49 H19        -9.7165   19.8326   21.5652 H           1 LIA       0.0482
     50 H20        -8.6472   18.9313   20.4636 H           1 LIA       0.0482
     51 H21        -9.5778   20.3214   19.8582 H           1 LIA       0.0482
@<TRIPOS>BOND
     1     1     2   1
     2     1     6   1
     3     1    27  am
     4     2     3   1
     5     3     4   1
     6     4     5   1
     7     4     7   1
     8     5     6   1
     9     7     8   1
    10     8     9  ar
    11     8    13  ar
    12     9    10  ar
    13    10    11  ar
    14    11    12  ar
    15    11    14   1
    16    12    13  ar
    17    12    26   1
    18    14    15   2
    19    14    16   1
    20    16    17  ar
    21    16    21  ar
    22    17    18  ar
    23    17    24   1
    24    18    19  ar
    25    18    25   1
    26    19    20  ar
    27    20    21  ar
    28    21    22   1
    29    22    23   1
    30    27    28   1
    31    27    29   2
    32    27    30   2
    33     2    31   1
    34     2    32   1
    35     3    33   1
    36     3    34   1
    37     4    35   1
    38     5    36   1
    39     5    37   1
    40     6    38   1
    41     6    39   1
    42     7    40   1
    43    10    41   1
    44    19    42   1
    45    20    43   1
    46    23    44   1
    47    23    45   1
    48    23    46   1
    49    26    47   1
    50    26    48   1
    51    28    49   1
    52    28    50   1
    53    28    51   1
@<TRIPOS>SUBSTRUCTURE
     1  LIA      2

