@<TRIPOS>MOLECULE
2fvd_ligand_052
    51    53
SMALL
GAST_HUCK
****
This file was generated by PARSER (from files_GN.cpp)

@<TRIPOS>ATOM
      1 N1          2.6643   22.1768   11.2084 N.am        1 LIA      -0.2385
      2 C2          1.5802   21.9938   10.2694 C.3         1 LIA       0.0314
      3 C3          1.4834   23.1403    9.2278 C.3         1 LIA      -0.0122
      4 C4          1.5049   24.5265    9.9271 C.3         1 LIA       0.0456
      5 C5          2.7775   24.6346   10.8045 C.3         1 LIA      -0.0122
      6 C6          2.8343   23.4708   11.8259 C.3         1 LIA       0.0314
      7 N7          1.4709   25.5827    8.9566 N.pl3       1 LIA      -0.2866
      8 C8          0.4789   26.4969    8.8302 C.ar        1 LIA       0.1789
      9 N9          0.5758   27.4495    7.8711 N.ar        1 LIA      -0.2656
     10 C10        -0.3919   28.3864    7.6957 C.ar        1 LIA       0.0186
     11 C11        -1.5424   28.4099    8.5235 C.ar        1 LIA       0.0852
     12 C12        -1.6310   27.3805    9.4904 C.ar        1 LIA       0.1302
     13 N13        -0.6278   26.4812    9.6179 N.ar        1 LIA      -0.2356
     14 C14        -2.5445   29.3562    8.3399 C.2         1 LIA       0.1492
     15 O15        -2.8812   29.5666    7.1785 O.2         1 LIA      -0.3856
     16 C16        -2.6434   30.4492    9.1996 C.ar        1 LIA       0.0920
     17 C17        -1.9839   31.6733    8.9053 C.ar        1 LIA       0.1766
     18 C18        -2.1348   32.7927    9.7458 C.ar        1 LIA       0.1591
     19 C19        -2.9499   32.7162   10.8862 C.ar        1 LIA      -0.0338
     20 C20        -3.6155   31.5194   11.1895 C.ar        1 LIA      -0.0322
     21 C21        -3.4856   30.3983   10.3464 C.ar        1 LIA       0.1052
     22 O22        -4.1791   29.2714   10.6915 O.3         1 LIA      -0.3192
     23 C23        -5.3409   29.0424    9.8771 C.3         1 LIA       0.0603
     24 F24        -1.2279   31.7976    7.8421 F           1 LIA      -0.1811
     25 F25        -1.5354   33.9150    9.4677 F           1 LIA      -0.1924
     26 N26        -2.6899   27.1844   10.2938 N.pl3       1 LIA      -0.3135
     27 S27         3.1990   20.8317   12.0883 S.o2        1 LIA       0.0385
     28 C28         4.8702   21.0122   12.7461 C.3         1 LIA       0.0734
     29 O29         3.2725   19.5384   11.1619 O.2         1 LIA      -0.1556
     30 O30         2.1933   20.4855   13.2717 O.2         1 LIA      -0.1556
     31 H1          0.6427   21.9359   10.8264 H           1 LIA       0.0479
     32 H2          1.6940   21.0620    9.7101 H           1 LIA       0.0479
     33 H3          0.5590   23.0314    8.6546 H           1 LIA       0.0304
     34 H4          2.3231   23.0667    8.5318 H           1 LIA       0.0304
     35 H5          0.6392   24.5930   10.5956 H           1 LIA       0.0563
     36 H6          2.7803   25.5888   11.3410 H           1 LIA       0.0304
     37 H7          3.6663   24.5984   10.1684 H           1 LIA       0.0304
     38 H8          3.7935   23.5408   12.3447 H           1 LIA       0.0479
     39 H9          2.0436   23.6071   12.5690 H           1 LIA       0.0479
     40 H10         2.1967   25.6264    8.3155 H           1 LIA       0.1881
     41 H11        -0.2666   29.0710    6.9472 H           1 LIA       0.0904
     42 H12        -3.0692   33.5298   11.4934 H           1 LIA       0.0605
     43 H13        -4.2149   31.4726   12.0182 H           1 LIA       0.0512
     44 H14        -5.8215   28.1311   10.2369 H           1 LIA       0.0579
     45 H15        -5.0772   28.8938    8.8249 H           1 LIA       0.0579
     46 H16        -6.0544   29.8681    9.9603 H           1 LIA       0.0579
     47 H17        -2.6884   26.4482   10.9233 H           1 LIA       0.1831
     48 H18        -3.4712   27.7442   10.2189 H           1 LIA       0.1831
     49 H19         5.2014   20.0646   13.1723 H           1 LIA       0.0482
     50 H20         4.8825   21.7757   13.5244 H           1 LIA       0.0482
     51 H21         5.5460   21.3035   11.9415 H           1 LIA       0.0482
@<TRIPOS>BOND
     1     1     2   1
     2     1     6   1
     3     1    27  am
     4     2     3   1
     5     3     4   1
     6     4     5   1
     7     4     7   1
     8     5     6   1
     9     7     8   1
    10     8     9  ar
    11     8    13  ar
    12     9    10  ar
    13    10    11  ar
    14    11    12  ar
    15    11    14   1
    16    12    13  ar
    17    12    26   1
    18    14    15   2
    19    14    16   1
    20    16    17  ar
    21    16    21  ar
    22    17    18  ar
    23    17    24   1
    24    18    19  ar
    25    18    25   1
    26    19    20  ar
    27    20    21  ar
    28    21    22   1
    29    22    23   1
    30    27    28   1
    31    27    29   2
    32    27    30   2
    33     2    31   1
    34     2    32   1
    35     3    33   1
    36     3    34   1
    37     4    35   1
    38     5    36   1
    39     5    37   1
    40     6    38   1
    41     6    39   1
    42     7    40   1
    43    10    41   1
    44    19    42   1
    45    20    43   1
    46    23    44   1
    47    23    45   1
    48    23    46   1
    49    26    47   1
    50    26    48   1
    51    28    49   1
    52    28    50   1
    53    28    51   1
@<TRIPOS>SUBSTRUCTURE
     1  LIA      2

