@<TRIPOS>MOLECULE
2fvd_ligand_049
    51    53
SMALL
GAST_HUCK
****
This file was generated by PARSER (from files_GN.cpp)

@<TRIPOS>ATOM
      1 N1         -6.5502   22.0005   21.4144 N.am        1 LIA      -0.2385
      2 C2         -6.2644   23.0821   20.5033 C.3         1 LIA       0.0314
      3 C3         -5.9759   22.5705   19.0702 C.3         1 LIA      -0.0122
      4 C4         -4.8857   21.4622   19.0756 C.3         1 LIA       0.0456
      5 C5         -5.3280   20.3231   20.0316 C.3         1 LIA      -0.0122
      6 C6         -5.6602   20.8626   21.4491 C.3         1 LIA       0.0314
      7 N7         -4.6622   20.9607   17.7487 N.pl3       1 LIA      -0.2866
      8 C8         -4.0760   21.6502   16.7461 C.ar        1 LIA       0.1789
      9 N9         -4.0041   21.0903   15.5133 N.ar        1 LIA      -0.2656
     10 C10        -3.4394   21.7412   14.4683 C.ar        1 LIA       0.0186
     11 C11        -2.8852   23.0376   14.6224 C.ar        1 LIA       0.0852
     12 C12        -2.9889   23.6051   15.9176 C.ar        1 LIA       0.1302
     13 N13        -3.5662   22.8998   16.9175 N.ar        1 LIA      -0.2356
     14 C14        -2.2749   23.6816   13.5495 C.2         1 LIA       0.1492
     15 O15        -1.2676   24.3540   13.7461 O.2         1 LIA      -0.3856
     16 C16        -2.7599   23.6052   12.2484 C.ar        1 LIA       0.0920
     17 C17        -4.0805   24.0308   11.9379 C.ar        1 LIA       0.1766
     18 C18        -4.5758   23.9189   10.6222 C.ar        1 LIA       0.1591
     19 C19        -3.7710   23.3632    9.6147 C.ar        1 LIA      -0.0338
     20 C20        -2.4679   22.9308    9.9117 C.ar        1 LIA      -0.0322
     21 C21        -1.9474   23.0694   11.2151 C.ar        1 LIA       0.1052
     22 O22        -0.7025   22.5562   11.4816 O.3         1 LIA      -0.3192
     23 C23         0.3770   23.4798   11.2599 C.3         1 LIA       0.0603
     24 F24        -4.8602   24.5464   12.8542 F           1 LIA      -0.1811
     25 F25        -5.7861   24.3096   10.3255 F           1 LIA      -0.1924
     26 N26        -2.5704   24.8459   16.2411 N.pl3       1 LIA      -0.3135
     27 S27        -7.4975   22.3520   22.7755 S.o2        1 LIA       0.0385
     28 C28        -9.2545   22.4938   22.3933 C.3         1 LIA       0.0734
     29 O29        -7.0036   23.7054   23.4503 O.2         1 LIA      -0.1556
     30 O30        -7.3585   21.2354   23.9034 O.2         1 LIA      -0.1556
     31 H1         -5.4020   23.6456   20.8728 H           1 LIA       0.0479
     32 H2         -7.1045   23.7757   20.4326 H           1 LIA       0.0479
     33 H3         -5.6595   23.4127   18.4505 H           1 LIA       0.0304
     34 H4         -6.8972   22.1659   18.6391 H           1 LIA       0.0304
     35 H5         -3.9486   21.8810   19.4599 H           1 LIA       0.0563
     36 H6         -4.5335   19.5777   20.1084 H           1 LIA       0.0304
     37 H7         -6.2140   19.8290   19.6249 H           1 LIA       0.0304
     38 H8         -6.0991   20.0333   22.0101 H           1 LIA       0.0479
     39 H9         -4.7357   21.1578   21.9572 H           1 LIA       0.0479
     40 H10        -4.9704   20.0612   17.5475 H           1 LIA       0.1881
     41 H11        -3.4057   21.2627   13.5657 H           1 LIA       0.0904
     42 H12        -4.1332   23.2631    8.6639 H           1 LIA       0.0605
     43 H13        -1.8942   22.5109    9.1804 H           1 LIA       0.0512
     44 H14         1.3099   22.9749   11.5119 H           1 LIA       0.0579
     45 H15         0.2847   24.3632   11.8953 H           1 LIA       0.0579
     46 H16         0.4261   23.7887   10.2134 H           1 LIA       0.0579
     47 H17        -2.7078   25.1675   17.1474 H           1 LIA       0.1831
     48 H18        -2.1606   25.4237   15.5801 H           1 LIA       0.1831
     49 H19        -9.8179   22.6644   23.3106 H           1 LIA       0.0482
     50 H20        -9.6083   21.5790   21.9164 H           1 LIA       0.0482
     51 H21        -9.4113   23.3336   21.7178 H           1 LIA       0.0482
@<TRIPOS>BOND
     1     1     2   1
     2     1     6   1
     3     1    27  am
     4     2     3   1
     5     3     4   1
     6     4     5   1
     7     4     7   1
     8     5     6   1
     9     7     8   1
    10     8     9  ar
    11     8    13  ar
    12     9    10  ar
    13    10    11  ar
    14    11    12  ar
    15    11    14   1
    16    12    13  ar
    17    12    26   1
    18    14    15   2
    19    14    16   1
    20    16    17  ar
    21    16    21  ar
    22    17    18  ar
    23    17    24   1
    24    18    19  ar
    25    18    25   1
    26    19    20  ar
    27    20    21  ar
    28    21    22   1
    29    22    23   1
    30    27    28   1
    31    27    29   2
    32    27    30   2
    33     2    31   1
    34     2    32   1
    35     3    33   1
    36     3    34   1
    37     4    35   1
    38     5    36   1
    39     5    37   1
    40     6    38   1
    41     6    39   1
    42     7    40   1
    43    10    41   1
    44    19    42   1
    45    20    43   1
    46    23    44   1
    47    23    45   1
    48    23    46   1
    49    26    47   1
    50    26    48   1
    51    28    49   1
    52    28    50   1
    53    28    51   1
@<TRIPOS>SUBSTRUCTURE
     1  LIA      2

