@<TRIPOS>MOLECULE
2fvd_ligand_064
    51    53
SMALL
GAST_HUCK
****
This file was generated by PARSER (from files_GN.cpp)

@<TRIPOS>ATOM
      1 N1         -7.2982   20.2675   22.1525 N.am        1 LIA      -0.2385
      2 C2         -8.0964   20.1256   20.9637 C.3         1 LIA       0.0314
      3 C3         -8.3372   21.5257   20.3374 C.3         1 LIA      -0.0122
      4 C4         -7.0114   22.3234   20.1401 C.3         1 LIA       0.0456
      5 C5         -6.1139   22.2769   21.4155 C.3         1 LIA      -0.0122
      6 C6         -5.9864   20.8406   21.9952 C.3         1 LIA       0.0314
      7 N7         -6.2928   21.8058   19.0056 N.pl3       1 LIA      -0.2866
      8 C8         -5.9837   22.4727   17.8716 C.ar        1 LIA       0.1789
      9 N9         -5.2505   21.8258   16.9304 N.ar        1 LIA      -0.2656
     10 C10        -4.8814   22.4246   15.7692 C.ar        1 LIA       0.0186
     11 C11        -5.2630   23.7575   15.5033 C.ar        1 LIA       0.0852
     12 C12        -6.0178   24.4183   16.5023 C.ar        1 LIA       0.1302
     13 N13        -6.3528   23.7628   17.6411 N.ar        1 LIA      -0.2356
     14 C14        -4.8390   24.3962   14.3436 C.2         1 LIA       0.1492
     15 O15        -5.7396   24.7879   13.6105 O.2         1 LIA      -0.3856
     16 C16        -3.4999   24.7303   14.0667 C.ar        1 LIA       0.0920
     17 C17        -2.5508   24.9520   15.1109 C.ar        1 LIA       0.1766
     18 C18        -1.2216   25.3230   14.8257 C.ar        1 LIA       0.1591
     19 C19        -0.8142   25.5189   13.4986 C.ar        1 LIA      -0.0338
     20 C20        -1.7254   25.3168   12.4545 C.ar        1 LIA      -0.0322
     21 C21        -3.0467   24.9020   12.7241 C.ar        1 LIA       0.1052
     22 O22        -3.8773   24.7150   11.6453 O.3         1 LIA      -0.3192
     23 C23        -3.5162   23.5944   10.8175 C.3         1 LIA       0.0603
     24 F24        -2.8709   24.8872   16.3797 F           1 LIA      -0.1811
     25 F25        -0.3533   25.5086   15.7870 F           1 LIA      -0.1924
     26 N26        -6.3535   25.7193   16.4127 N.pl3       1 LIA      -0.3135
     27 S27        -8.0546   20.2521   23.6701 S.o2        1 LIA       0.0385
     28 C28        -8.1037   18.6108   24.4050 C.3         1 LIA       0.0734
     29 O29        -9.5365   20.8190   23.5631 O.2         1 LIA      -0.1556
     30 O30        -7.3430   21.2478   24.6903 O.2         1 LIA      -0.1556
     31 H1         -9.0560   19.6437   21.1670 H           1 LIA       0.0479
     32 H2         -7.5696   19.4899   20.2485 H           1 LIA       0.0479
     33 H3         -8.9949   22.0943   21.0000 H           1 LIA       0.0304
     34 H4         -8.8526   21.4105   19.3799 H           1 LIA       0.0304
     35 H5         -7.2801   23.3728   19.9784 H           1 LIA       0.0563
     36 H6         -6.5517   22.9212   22.1821 H           1 LIA       0.0304
     37 H7         -5.1184   22.6697   21.1890 H           1 LIA       0.0304
     38 H8         -5.4047   20.2264   21.3040 H           1 LIA       0.0479
     39 H9         -5.4296   20.8723   22.9357 H           1 LIA       0.0479
     40 H10        -5.9888   20.8856   19.0627 H           1 LIA       0.1881
     41 H11        -4.3323   21.8882   15.0951 H           1 LIA       0.0904
     42 H12         0.1451   25.8163   13.2895 H           1 LIA       0.0605
     43 H13        -1.4195   25.4666   11.4913 H           1 LIA       0.0512
     44 H14        -4.2950   23.4638   10.0644 H           1 LIA       0.0579
     45 H15        -3.4422   22.6740   11.4022 H           1 LIA       0.0579
     46 H16        -2.5716   23.7679   10.2953 H           1 LIA       0.0579
     47 H17        -6.8172   26.1525   17.1457 H           1 LIA       0.1831
     48 H18        -6.0219   26.2561   15.6744 H           1 LIA       0.1831
     49 H19        -8.5771   18.6636   25.3861 H           1 LIA       0.0482
     50 H20        -7.0879   18.2296   24.5115 H           1 LIA       0.0482
     51 H21        -8.6758   17.9408   23.7619 H           1 LIA       0.0482
@<TRIPOS>BOND
     1     1     2   1
     2     1     6   1
     3     1    27  am
     4     2     3   1
     5     3     4   1
     6     4     5   1
     7     4     7   1
     8     5     6   1
     9     7     8   1
    10     8     9  ar
    11     8    13  ar
    12     9    10  ar
    13    10    11  ar
    14    11    12  ar
    15    11    14   1
    16    12    13  ar
    17    12    26   1
    18    14    15   2
    19    14    16   1
    20    16    17  ar
    21    16    21  ar
    22    17    18  ar
    23    17    24   1
    24    18    19  ar
    25    18    25   1
    26    19    20  ar
    27    20    21  ar
    28    21    22   1
    29    22    23   1
    30    27    28   1
    31    27    29   2
    32    27    30   2
    33     2    31   1
    34     2    32   1
    35     3    33   1
    36     3    34   1
    37     4    35   1
    38     5    36   1
    39     5    37   1
    40     6    38   1
    41     6    39   1
    42     7    40   1
    43    10    41   1
    44    19    42   1
    45    20    43   1
    46    23    44   1
    47    23    45   1
    48    23    46   1
    49    26    47   1
    50    26    48   1
    51    28    49   1
    52    28    50   1
    53    28    51   1
@<TRIPOS>SUBSTRUCTURE
     1  LIA      2

