@<TRIPOS>MOLECULE
2fvd_ligand_040
    51    53
SMALL
GAST_HUCK
****
This file was generated by PARSER (from files_GN.cpp)

@<TRIPOS>ATOM
      1 N1         -6.3571   24.0609   16.8652 N.am        1 LIA      -0.2385
      2 C2         -5.2853   23.5301   16.0679 C.3         1 LIA       0.0314
      3 C3         -5.0866   24.3821   14.7914 C.3         1 LIA      -0.0122
      4 C4         -6.4096   24.5986   13.9915 C.3         1 LIA       0.0456
      5 C5         -7.4903   25.1848   14.9393 C.3         1 LIA      -0.0122
      6 C6         -7.6271   24.3418   16.2374 C.3         1 LIA       0.0314
      7 N7         -6.3546   25.3800   12.7796 N.pl3       1 LIA      -0.2866
      8 C8         -5.3756   26.1823   12.2911 C.ar        1 LIA       0.1789
      9 N9         -4.1930   26.4168   12.9062 N.ar        1 LIA      -0.2656
     10 C10        -3.2413   27.2270   12.3900 C.ar        1 LIA       0.0186
     11 C11        -3.4418   27.8953   11.1594 C.ar        1 LIA       0.0852
     12 C12        -4.6831   27.6265   10.5199 C.ar        1 LIA       0.1302
     13 N13        -5.5876   26.7943   11.1016 N.ar        1 LIA      -0.2356
     14 C14        -2.4669   28.7658   10.6427 C.2         1 LIA       0.1492
     15 O15        -2.7757   29.7042    9.9238 O.2         1 LIA      -0.3856
     16 C16        -1.0989   28.5953   10.8465 C.ar        1 LIA       0.0920
     17 C17        -0.4428   29.2582   11.9151 C.ar        1 LIA       0.1766
     18 C18         0.9375   29.0715   12.1232 C.ar        1 LIA       0.1591
     19 C19         1.6701   28.2376   11.2612 C.ar        1 LIA      -0.0338
     20 C20         1.0315   27.6045   10.1782 C.ar        1 LIA      -0.0322
     21 C21        -0.3570   27.7532    9.9781 C.ar        1 LIA       0.1052
     22 O22        -0.9630   27.1511    8.8954 O.3         1 LIA      -0.3192
     23 C23        -0.8304   25.7167    8.8147 C.3         1 LIA       0.0603
     24 F24        -1.1037   30.0332   12.7422 F           1 LIA      -0.1811
     25 F25         1.5553   29.6653   13.1111 F           1 LIA      -0.1924
     26 N26        -5.0197   28.1100    9.3083 N.pl3       1 LIA      -0.3135
     27 S27        -6.2973   23.9064   18.5519 S.o2        1 LIA       0.0385
     28 C28        -5.0003   22.8438   19.2175 C.3         1 LIA       0.0734
     29 O29        -7.6568   23.2465   19.0512 O.2         1 LIA      -0.1556
     30 O30        -6.1647   25.3428   19.2228 O.2         1 LIA      -0.1556
     31 H1         -5.5000   22.4900   15.8081 H           1 LIA       0.0479
     32 H2         -4.3372   23.5429   16.6103 H           1 LIA       0.0479
     33 H3         -4.3375   23.9084   14.1519 H           1 LIA       0.0304
     34 H4         -4.7032   25.3500   15.1207 H           1 LIA       0.0304
     35 H5         -6.7571   23.6113   13.6776 H           1 LIA       0.0563
     36 H6         -8.4596   25.2044   14.4302 H           1 LIA       0.0304
     37 H7         -7.2287   26.2140   15.2031 H           1 LIA       0.0304
     38 H8         -8.2896   24.8880   16.9125 H           1 LIA       0.0479
     39 H9         -8.1080   23.3900   15.9948 H           1 LIA       0.0479
     40 H10        -7.1440   25.3168   12.2151 H           1 LIA       0.1881
     41 H11        -2.3896   27.3394   12.9334 H           1 LIA       0.0904
     42 H12         2.6683   28.0841   11.4161 H           1 LIA       0.0605
     43 H13         1.5855   27.0267    9.5447 H           1 LIA       0.0512
     44 H14        -1.4472   25.3566    7.9948 H           1 LIA       0.0579
     45 H15        -1.1690   25.2320    9.7342 H           1 LIA       0.0579
     46 H16         0.2031   25.4306    8.6094 H           1 LIA       0.0579
     47 H17        -5.8627   27.8486    8.9112 H           1 LIA       0.1831
     48 H18        -4.4128   28.6704    8.8023 H           1 LIA       0.1831
     49 H19        -5.1379   22.7340   20.2935 H           1 LIA       0.0482
     50 H20        -4.0210   23.2871   19.0303 H           1 LIA       0.0482
     51 H21        -5.0527   21.8625   18.7444 H           1 LIA       0.0482
@<TRIPOS>BOND
     1     1     2   1
     2     1     6   1
     3     1    27  am
     4     2     3   1
     5     3     4   1
     6     4     5   1
     7     4     7   1
     8     5     6   1
     9     7     8   1
    10     8     9  ar
    11     8    13  ar
    12     9    10  ar
    13    10    11  ar
    14    11    12  ar
    15    11    14   1
    16    12    13  ar
    17    12    26   1
    18    14    15   2
    19    14    16   1
    20    16    17  ar
    21    16    21  ar
    22    17    18  ar
    23    17    24   1
    24    18    19  ar
    25    18    25   1
    26    19    20  ar
    27    20    21  ar
    28    21    22   1
    29    22    23   1
    30    27    28   1
    31    27    29   2
    32    27    30   2
    33     2    31   1
    34     2    32   1
    35     3    33   1
    36     3    34   1
    37     4    35   1
    38     5    36   1
    39     5    37   1
    40     6    38   1
    41     6    39   1
    42     7    40   1
    43    10    41   1
    44    19    42   1
    45    20    43   1
    46    23    44   1
    47    23    45   1
    48    23    46   1
    49    26    47   1
    50    26    48   1
    51    28    49   1
    52    28    50   1
    53    28    51   1
@<TRIPOS>SUBSTRUCTURE
     1  LIA      2

