@<TRIPOS>MOLECULE
2fvd_ligand_010
    51    53
SMALL
GAST_HUCK
****
This file was generated by PARSER (from files_GN.cpp)

@<TRIPOS>ATOM
      1 N1          4.2562   27.3240    4.3783 N.am        1 LIA      -0.2385
      2 C2          2.9622   27.1195    4.9690 C.3         1 LIA       0.0314
      3 C3          3.1442   26.8504    6.4863 C.3         1 LIA      -0.0122
      4 C4          3.9010   28.0265    7.1765 C.3         1 LIA       0.0456
      5 C5          5.2662   28.2274    6.4389 C.3         1 LIA      -0.0122
      6 C6          5.0685   28.3936    4.9049 C.3         1 LIA       0.0314
      7 N7          3.1870   29.2758    7.1502 N.pl3       1 LIA      -0.2866
      8 C8          1.8988   29.5173    7.4867 C.ar        1 LIA       0.1789
      9 N9          1.0607   28.5826    8.0099 N.ar        1 LIA      -0.2656
     10 C10        -0.2462   28.8417    8.2431 C.ar        1 LIA       0.0186
     11 C11        -0.7970   30.1076    7.9250 C.ar        1 LIA       0.0852
     12 C12         0.0984   31.0711    7.4021 C.ar        1 LIA       0.1302
     13 N13         1.4044   30.7484    7.2039 N.ar        1 LIA      -0.2356
     14 C14        -2.1631   30.3176    8.0247 C.2         1 LIA       0.1492
     15 O15        -2.8306   29.8245    7.1267 O.2         1 LIA      -0.3856
     16 C16        -2.7936   30.6663    9.2246 C.ar        1 LIA       0.0920
     17 C17        -3.7837   29.8253    9.8008 C.ar        1 LIA       0.1766
     18 C18        -4.4919   30.2241   10.9488 C.ar        1 LIA       0.1591
     19 C19        -4.2374   31.4827   11.5255 C.ar        1 LIA      -0.0338
     20 C20        -3.2672   32.3273   10.9689 C.ar        1 LIA      -0.0322
     21 C21        -2.5193   31.9150    9.8457 C.ar        1 LIA       0.1052
     22 O22        -1.5934   32.7778    9.3122 O.3         1 LIA      -0.3192
     23 C23        -0.3132   32.7238    9.9679 C.3         1 LIA       0.0603
     24 F24        -4.0554   28.6444    9.2961 F           1 LIA      -0.1811
     25 F25        -5.3974   29.4487   11.4830 F           1 LIA      -0.1924
     26 N26        -0.2955   32.3151    7.0653 N.pl3       1 LIA      -0.3135
     27 S27         4.9382   26.1576    3.3535 S.o2        1 LIA       0.0385
     28 C28         5.0396   26.6931    1.6366 C.3         1 LIA       0.0734
     29 O29         4.1175   24.7972    3.4107 O.2         1 LIA      -0.1556
     30 O30         6.3803   25.7369    3.8837 O.2         1 LIA      -0.1556
     31 H1          2.4202   26.2929    4.5111 H           1 LIA       0.0479
     32 H2          2.3554   28.0169    4.8225 H           1 LIA       0.0479
     33 H3          3.7200   25.9255    6.6098 H           1 LIA       0.0304
     34 H4          2.1725   26.6887    6.9555 H           1 LIA       0.0304
     35 H5          4.0999   27.7596    8.2186 H           1 LIA       0.0563
     36 H6          5.9079   27.3583    6.6181 H           1 LIA       0.0304
     37 H7          5.7806   29.0996    6.8440 H           1 LIA       0.0304
     38 H8          4.5612   29.3377    4.6996 H           1 LIA       0.0479
     39 H9          6.0400   28.4484    4.4090 H           1 LIA       0.0479
     40 H10         3.6738   30.0274    6.7818 H           1 LIA       0.1881
     41 H11        -0.8379   28.0932    8.6139 H           1 LIA       0.0904
     42 H12        -4.7698   31.7875   12.3492 H           1 LIA       0.0605
     43 H13        -3.1102   33.2448   11.3801 H           1 LIA       0.0512
     44 H14         0.3909   33.3299    9.3952 H           1 LIA       0.0579
     45 H15         0.0774   31.7025   10.0156 H           1 LIA       0.0579
     46 H16        -0.3706   33.1337   10.9812 H           1 LIA       0.0579
     47 H17         0.3456   32.9611    6.7280 H           1 LIA       0.1831
     48 H18        -1.2224   32.5748    7.1637 H           1 LIA       0.1831
     49 H19         5.4354   25.8833    1.0247 H           1 LIA       0.0482
     50 H20         5.6957   27.5587    1.5628 H           1 LIA       0.0482
     51 H21         4.0451   26.9620    1.2833 H           1 LIA       0.0482
@<TRIPOS>BOND
     1     1     2   1
     2     1     6   1
     3     1    27  am
     4     2     3   1
     5     3     4   1
     6     4     5   1
     7     4     7   1
     8     5     6   1
     9     7     8   1
    10     8     9  ar
    11     8    13  ar
    12     9    10  ar
    13    10    11  ar
    14    11    12  ar
    15    11    14   1
    16    12    13  ar
    17    12    26   1
    18    14    15   2
    19    14    16   1
    20    16    17  ar
    21    16    21  ar
    22    17    18  ar
    23    17    24   1
    24    18    19  ar
    25    18    25   1
    26    19    20  ar
    27    20    21  ar
    28    21    22   1
    29    22    23   1
    30    27    28   1
    31    27    29   2
    32    27    30   2
    33     2    31   1
    34     2    32   1
    35     3    33   1
    36     3    34   1
    37     4    35   1
    38     5    36   1
    39     5    37   1
    40     6    38   1
    41     6    39   1
    42     7    40   1
    43    10    41   1
    44    19    42   1
    45    20    43   1
    46    23    44   1
    47    23    45   1
    48    23    46   1
    49    26    47   1
    50    26    48   1
    51    28    49   1
    52    28    50   1
    53    28    51   1
@<TRIPOS>SUBSTRUCTURE
     1  LIA      2

