@<TRIPOS>MOLECULE
2fvd_ligand_061
    51    53
SMALL
GAST_HUCK
****
This file was generated by PARSER (from files_GN.cpp)

@<TRIPOS>ATOM
      1 N1          2.0246   22.0863   10.6521 N.am        1 LIA      -0.2385
      2 C2          2.2955   23.4006   10.1277 C.3         1 LIA       0.0314
      3 C3          1.4951   23.6222    8.8155 C.3         1 LIA      -0.0122
      4 C4         -0.0355   23.3569    9.0256 C.3         1 LIA       0.0456
      5 C5         -0.1927   21.9179    9.6096 C.3         1 LIA      -0.0122
      6 C6          0.6486   21.7259   10.9003 C.3         1 LIA       0.0314
      7 N7         -0.8275   24.2740    9.8127 N.pl3       1 LIA      -0.2866
      8 C8         -0.6170   25.5746   10.1345 C.ar        1 LIA       0.1789
      9 N9          0.5188   26.2583    9.8497 N.ar        1 LIA      -0.2656
     10 C10         0.6855   27.5684   10.1566 C.ar        1 LIA       0.0186
     11 C11        -0.3620   28.3036   10.7512 C.ar        1 LIA       0.0852
     12 C12        -1.5122   27.5588   11.1115 C.ar        1 LIA       0.1302
     13 N13        -1.6032   26.2405   10.7853 N.ar        1 LIA      -0.2356
     14 C14        -0.2099   29.6500   11.0616 C.2         1 LIA       0.1492
     15 O15        -0.1656   29.9059   12.2580 O.2         1 LIA      -0.3856
     16 C16        -0.4679   30.6948   10.1526 C.ar        1 LIA       0.0920
     17 C17         0.2402   30.8199    8.9239 C.ar        1 LIA       0.1766
     18 C18         0.0460   31.9272    8.0715 C.ar        1 LIA       0.1591
     19 C19        -0.8428   32.9503    8.4390 C.ar        1 LIA      -0.0338
     20 C20        -1.5583   32.8505    9.6402 C.ar        1 LIA      -0.0322
     21 C21        -1.4142   31.7164   10.4718 C.ar        1 LIA       0.1052
     22 O22        -2.1961   31.6386   11.6015 O.3         1 LIA      -0.3192
     23 C23        -3.5924   31.3993   11.3365 C.3         1 LIA       0.0603
     24 F24         1.1549   29.9664    8.5541 F           1 LIA      -0.1811
     25 F25         0.7081   32.0469    6.9479 F           1 LIA      -0.1924
     26 N26        -2.5419   28.0920   11.7906 N.pl3       1 LIA      -0.3135
     27 S27         3.2979   20.9992   10.9160 S.o2        1 LIA       0.0385
     28 C28         4.2354   20.5702    9.4364 C.3         1 LIA       0.0734
     29 O29         2.7827   19.6160   11.5106 O.2         1 LIA      -0.1556
     30 O30         4.2740   21.5736   12.0333 O.2         1 LIA      -0.1556
     31 H1          3.3568   23.5526    9.9173 H           1 LIA       0.0479
     32 H2          2.0073   24.1474   10.8732 H           1 LIA       0.0479
     33 H3          1.8619   22.9148    8.0656 H           1 LIA       0.0304
     34 H4          1.6914   24.6176    8.4118 H           1 LIA       0.0304
     35 H5         -0.5008   23.3562    8.0362 H           1 LIA       0.0563
     36 H6          0.1481   21.1889    8.8673 H           1 LIA       0.0304
     37 H7         -1.2427   21.6937    9.8199 H           1 LIA       0.0304
     38 H8          0.2540   22.3655   11.6951 H           1 LIA       0.0479
     39 H9          0.5360   20.6925   11.2374 H           1 LIA       0.0479
     40 H10        -1.7004   23.9362   10.0720 H           1 LIA       0.1881
     41 H11         1.5924   27.9953    9.9610 H           1 LIA       0.0904
     42 H12        -0.9690   33.7696    7.8398 H           1 LIA       0.0605
     43 H13        -2.1970   33.6041    9.9016 H           1 LIA       0.0512
     44 H14        -4.0895   31.1775   12.2796 H           1 LIA       0.0579
     45 H15        -3.7480   30.5537   10.6610 H           1 LIA       0.0579
     46 H16        -4.0585   32.2899   10.9127 H           1 LIA       0.0579
     47 H17        -3.3000   27.5397   12.0440 H           1 LIA       0.1831
     48 H18        -2.5115   29.0205   12.0717 H           1 LIA       0.1831
     49 H19         4.9678   19.7988    9.6797 H           1 LIA       0.0482
     50 H20         4.7563   21.4509    9.0591 H           1 LIA       0.0482
     51 H21         3.5582   20.1934    8.6685 H           1 LIA       0.0482
@<TRIPOS>BOND
     1     1     2   1
     2     1     6   1
     3     1    27  am
     4     2     3   1
     5     3     4   1
     6     4     5   1
     7     4     7   1
     8     5     6   1
     9     7     8   1
    10     8     9  ar
    11     8    13  ar
    12     9    10  ar
    13    10    11  ar
    14    11    12  ar
    15    11    14   1
    16    12    13  ar
    17    12    26   1
    18    14    15   2
    19    14    16   1
    20    16    17  ar
    21    16    21  ar
    22    17    18  ar
    23    17    24   1
    24    18    19  ar
    25    18    25   1
    26    19    20  ar
    27    20    21  ar
    28    21    22   1
    29    22    23   1
    30    27    28   1
    31    27    29   2
    32    27    30   2
    33     2    31   1
    34     2    32   1
    35     3    33   1
    36     3    34   1
    37     4    35   1
    38     5    36   1
    39     5    37   1
    40     6    38   1
    41     6    39   1
    42     7    40   1
    43    10    41   1
    44    19    42   1
    45    20    43   1
    46    23    44   1
    47    23    45   1
    48    23    46   1
    49    26    47   1
    50    26    48   1
    51    28    49   1
    52    28    50   1
    53    28    51   1
@<TRIPOS>SUBSTRUCTURE
     1  LIA      2

