@<TRIPOS>MOLECULE
2fvd_ligand_018
    51    53
SMALL
GAST_HUCK
****
This file was generated by PARSER (from files_GN.cpp)

@<TRIPOS>ATOM
      1 N1          4.3138   27.2329    4.4369 N.am        1 LIA      -0.2385
      2 C2          2.9875   27.1049    4.9777 C.3         1 LIA       0.0314
      3 C3          3.0962   26.8970    6.5134 C.3         1 LIA      -0.0122
      4 C4          3.8672   28.0768    7.1860 C.3         1 LIA       0.0456
      5 C5          5.2600   28.2090    6.4956 C.3         1 LIA      -0.0122
      6 C6          5.1379   28.2980    4.9444 C.3         1 LIA       0.0314
      7 N7          3.1870   29.3454    7.1089 N.pl3       1 LIA      -0.2866
      8 C8          1.9219   29.6431    7.4769 C.ar        1 LIA       0.1789
      9 N9          1.0801   28.7360    8.0352 N.ar        1 LIA      -0.2656
     10 C10        -0.2239   29.0277    8.3019 C.ar        1 LIA       0.0186
     11 C11        -0.7478   30.2958    7.9721 C.ar        1 LIA       0.0852
     12 C12         0.1515   31.2371    7.4137 C.ar        1 LIA       0.1302
     13 N13         1.4450   30.8860    7.1943 N.ar        1 LIA      -0.2356
     14 C14        -2.1090   30.5379    8.0775 C.2         1 LIA       0.1492
     15 O15        -2.8101   30.1222    7.1625 O.2         1 LIA      -0.3856
     16 C16        -2.7194   30.8487    9.2857 C.ar        1 LIA       0.0920
     17 C17        -2.5288   32.1320    9.8662 C.ar        1 LIA       0.1766
     18 C18        -3.2324   32.4980   11.0327 C.ar        1 LIA       0.1591
     19 C19        -4.0796   31.5729   11.6622 C.ar        1 LIA      -0.0338
     20 C20        -4.2409   30.2857   11.1267 C.ar        1 LIA      -0.0322
     21 C21        -3.5991   29.9313    9.9183 C.ar        1 LIA       0.1052
     22 O22        -3.7957   28.6731    9.4076 O.3         1 LIA      -0.3192
     23 C23        -5.0898   28.4922    8.8063 C.3         1 LIA       0.0603
     24 F24        -1.7525   33.0263    9.3149 F           1 LIA      -0.1811
     25 F25        -3.1101   33.6978   11.5391 F           1 LIA      -0.1924
     26 N26        -0.2290   32.4758    7.0558 N.pl3       1 LIA      -0.3135
     27 S27         4.9963   25.9848    3.5145 S.o2        1 LIA       0.0385
     28 C28         5.1065   26.3990    1.7638 C.3         1 LIA       0.0734
     29 O29         4.1611   24.6375    3.6564 O.2         1 LIA      -0.1556
     30 O30         6.4305   25.5990    4.0872 O.2         1 LIA      -0.1556
     31 H1          2.4367   26.2768    4.5313 H           1 LIA       0.0479
     32 H2          2.4188   28.0169    4.7655 H           1 LIA       0.0479
     33 H3          3.6373   25.9602    6.7006 H           1 LIA       0.0304
     34 H4          2.1049   26.7954    6.9545 H           1 LIA       0.0304
     35 H5          4.0205   27.8359    8.2431 H           1 LIA       0.0563
     36 H6          5.8694   27.3344    6.7477 H           1 LIA       0.0304
     37 H7          5.7806   29.0912    6.8773 H           1 LIA       0.0304
     38 H8          4.6774   29.2466    4.6670 H           1 LIA       0.0479
     39 H9          6.1351   28.2891    4.4980 H           1 LIA       0.0479
     40 H10         3.6890   30.0654    6.6974 H           1 LIA       0.1881
     41 H11        -0.8221   28.2949    8.6927 H           1 LIA       0.0904
     42 H12        -4.5907   31.8338   12.5160 H           1 LIA       0.0605
     43 H13        -4.8461   29.6177   11.6050 H           1 LIA       0.0512
     44 H14        -5.1323   27.4999    8.3617 H           1 LIA       0.0579
     45 H15        -5.2788   29.2251    8.0167 H           1 LIA       0.0579
     46 H16        -5.8770   28.5540    9.5597 H           1 LIA       0.0579
     47 H17         0.4087   33.1193    6.7037 H           1 LIA       0.1831
     48 H18        -1.1609   32.7325    7.1464 H           1 LIA       0.1831
     49 H19         5.4917   25.5442    1.2066 H           1 LIA       0.0482
     50 H20         5.7737   27.2509    1.6315 H           1 LIA       0.0482
     51 H21         4.1133   26.6564    1.3948 H           1 LIA       0.0482
@<TRIPOS>BOND
     1     1     2   1
     2     1     6   1
     3     1    27  am
     4     2     3   1
     5     3     4   1
     6     4     5   1
     7     4     7   1
     8     5     6   1
     9     7     8   1
    10     8     9  ar
    11     8    13  ar
    12     9    10  ar
    13    10    11  ar
    14    11    12  ar
    15    11    14   1
    16    12    13  ar
    17    12    26   1
    18    14    15   2
    19    14    16   1
    20    16    17  ar
    21    16    21  ar
    22    17    18  ar
    23    17    24   1
    24    18    19  ar
    25    18    25   1
    26    19    20  ar
    27    20    21  ar
    28    21    22   1
    29    22    23   1
    30    27    28   1
    31    27    29   2
    32    27    30   2
    33     2    31   1
    34     2    32   1
    35     3    33   1
    36     3    34   1
    37     4    35   1
    38     5    36   1
    39     5    37   1
    40     6    38   1
    41     6    39   1
    42     7    40   1
    43    10    41   1
    44    19    42   1
    45    20    43   1
    46    23    44   1
    47    23    45   1
    48    23    46   1
    49    26    47   1
    50    26    48   1
    51    28    49   1
    52    28    50   1
    53    28    51   1
@<TRIPOS>SUBSTRUCTURE
     1  LIA      2

