@<TRIPOS>MOLECULE
2g70_ligand_001
    28    29
SMALL
GAST_HUCK
****
This file was generated by PARSER (from files_GN.cpp)

@<TRIPOS>ATOM
      1 C1         28.5495   50.1449   22.4091 C.3         1 HNT       0.0268
      2 C2         29.3008   49.7190   21.1114 C.3         1 HNT       0.0116
      3 O2         30.2420   56.3474   23.4204 O.2         1 HNT       0.1750
      4 C4         30.7728   51.7274   21.2619 C.3         1 HNT      -0.0003
      5 C5         29.9679   53.6861   22.5999 C.ar        1 HNT      -0.0189
      6 C6         29.1000   54.3039   23.5333 C.ar        1 HNT       0.1861
      7 C7         28.0665   53.5138   24.0945 C.ar        1 HNT      -0.0321
      8 C8         27.8973   52.1693   23.7242 C.ar        1 HNT      -0.0576
      9 O22        28.2454   47.7809   20.0041 O.3         1 HNT      -0.3893
     10 C22        29.2914   48.1767   20.8891 C.3         1 HNT       0.0887
     11 C8A        28.7573   51.5691   22.7799 C.ar        1 HNT      -0.0245
     12 N1         29.2511   55.6183   23.8595 N.2         1 HNT       0.3079
     13 O3         28.4714   56.1979   24.5696 O.2         1 HNT       0.1750
     14 C4A        29.8217   52.3304   22.2336 C.ar        1 HNT       0.0118
     15 N41        30.6842   50.2520   21.1645 N.4         1 HNT       0.2433
     16 H1         28.8837   49.5366   23.2547 H           1 HNT       0.0480
     17 H2         27.4844   49.9587   22.2604 H           1 HNT       0.0480
     18 H3         28.8060   50.1814   20.2502 H           1 HNT       0.0897
     19 H4         31.7936   51.9676   21.5650 H           1 HNT       0.0965
     20 H5         30.5992   52.1650   20.2760 H           1 HNT       0.0965
     21 H6         30.7211   54.2325   22.1716 H           1 HNT       0.0612
     22 H7         27.4261   53.9108   24.7862 H           1 HNT       0.0619
     23 H8         27.1323   51.6320   24.1412 H           1 HNT       0.0555
     24 H9         27.4062   48.0338   20.4499 H           1 HNT       0.2097
     25 H10        29.1736   47.6338   21.8295 H           1 HNT       0.0615
     26 H11        30.2306   47.8521   20.4381 H           1 HNT       0.0615
     27 H12        31.1862   49.9530   20.3242 H           1 HNT       0.2032
     28 H13        31.1511   49.8501   21.9785 H           1 HNT       0.2032
@<TRIPOS>BOND
     1     2     1   1
     2     1    11   1
     3     2    10   1
     4    15     2   1
     5    12     3   2
     6    14     4   1
     7     4    15   1
     8     6     5  ar
     9     5    14  ar
    10     6     7  ar
    11     6    12   1
    12     7     8  ar
    13     8    11  ar
    14    10     9   1
    15    11    14  ar
    16    12    13   2
    17     1    16   1
    18     1    17   1
    19     2    18   1
    20     4    19   1
    21     4    20   1
    22     5    21   1
    23     7    22   1
    24     8    23   1
    25     9    24   1
    26    10    25   1
    27    10    26   1
    28    15    27   1
    29    15    28   1
@<TRIPOS>SUBSTRUCTURE
     1  HNT      1

