@<TRIPOS>MOLECULE
2g70_ligand_044
    28    29
SMALL
GAST_HUCK
****
This file was generated by PARSER (from files_GN.cpp)

@<TRIPOS>ATOM
      1 C1         29.1197   45.6821   20.6950 C.3         1 HNT       0.0268
      2 C2         29.0658   44.5364   19.6424 C.3         1 HNT       0.0116
      3 O2         26.3463   50.8318   17.8422 O.2         1 HNT       0.1750
      4 C4         27.3411   45.8152   18.3420 C.3         1 HNT      -0.0003
      5 C5         27.2431   48.3091   18.6582 C.ar        1 HNT      -0.0189
      6 C6         27.5808   49.5110   19.3287 C.ar        1 HNT       0.1861
      7 C7         28.4218   49.4099   20.4633 C.ar        1 HNT      -0.0321
      8 C8         28.9067   48.1664   20.9016 C.ar        1 HNT      -0.0576
      9 O22        31.5139   44.5766   19.1765 O.3         1 HNT      -0.3893
     10 C22        30.2133   44.5810   18.5930 C.3         1 HNT       0.0887
     11 C8A        28.5727   46.9781   20.2182 C.ar        1 HNT      -0.0245
     12 N1         27.1126   50.7174   18.8928 N.2         1 HNT       0.3079
     13 O3         27.3781   51.7541   19.4438 O.2         1 HNT       0.1750
     14 C4A        27.7082   47.0455   19.0969 C.ar        1 HNT       0.0118
     15 N41        27.7268   44.5461   19.0038 N.4         1 HNT       0.2433
     16 H1         30.1536   45.8194   21.0076 H           1 HNT       0.0480
     17 H2         28.5429   45.3875   21.5750 H           1 HNT       0.0480
     18 H3         29.1560   43.5838   20.1731 H           1 HNT       0.0897
     19 H4         27.7831   45.8534   17.3440 H           1 HNT       0.0965
     20 H5         26.2634   45.7771   18.2213 H           1 HNT       0.0965
     21 H6         26.6638   48.3509   17.8155 H           1 HNT       0.0612
     22 H7         28.6901   50.2457   20.9868 H           1 HNT       0.0619
     23 H8         29.5116   48.1352   21.7246 H           1 HNT       0.0555
     24 H9         31.6449   43.6706   19.5235 H           1 HNT       0.2097
     25 H10        30.1307   45.4841   17.9875 H           1 HNT       0.0615
     26 H11        30.1413   43.7135   17.9329 H           1 HNT       0.0615
     27 H12        27.0346   44.3615   19.7344 H           1 HNT       0.2032
     28 H13        27.6703   43.7902   18.3172 H           1 HNT       0.2032
@<TRIPOS>BOND
     1     2     1   1
     2     1    11   1
     3     2    10   1
     4    15     2   1
     5    12     3   2
     6    14     4   1
     7     4    15   1
     8     6     5  ar
     9     5    14  ar
    10     6     7  ar
    11     6    12   1
    12     7     8  ar
    13     8    11  ar
    14    10     9   1
    15    11    14  ar
    16    12    13   2
    17     1    16   1
    18     1    17   1
    19     2    18   1
    20     4    19   1
    21     4    20   1
    22     5    21   1
    23     7    22   1
    24     8    23   1
    25     9    24   1
    26    10    25   1
    27    10    26   1
    28    15    27   1
    29    15    28   1
@<TRIPOS>SUBSTRUCTURE
     1  HNT      1

