@<TRIPOS>MOLECULE
2g70_ligand_041
    28    29
SMALL
GAST_HUCK
****
This file was generated by PARSER (from files_GN.cpp)

@<TRIPOS>ATOM
      1 C1         27.5678   43.7645   17.4355 C.3         1 HNT       0.0268
      2 C2         28.0443   43.1326   18.7745 C.3         1 HNT       0.0116
      3 O2         27.0672   50.1582   18.6293 O.2         1 HNT       0.1750
      4 C4         27.4468   45.2158   20.0203 C.3         1 HNT      -0.0003
      5 C5         27.2860   47.3559   18.7265 C.ar        1 HNT      -0.0189
      6 C6         27.1963   48.0965   17.5167 C.ar        1 HNT       0.1861
      7 C7         27.2306   47.3718   16.3002 C.ar        1 HNT      -0.0321
      8 C8         27.3557   45.9703   16.2852 C.ar        1 HNT      -0.0576
      9 O22        27.9254   40.9313   17.5819 O.3         1 HNT      -0.3893
     10 C22        27.8853   41.5859   18.8471 C.3         1 HNT       0.0887
     11 C8A        27.4433   45.2459   17.4927 C.ar        1 HNT      -0.0245
     12 N1         27.0928   49.4608   17.5230 N.2         1 HNT       0.3079
     13 O3         27.0340   50.1151   16.5168 O.2         1 HNT       0.1750
     14 C4A        27.3844   45.9449   18.7264 C.ar        1 HNT       0.0118
     15 N41        27.2833   43.7527   19.8843 N.4         1 HNT       0.2433
     16 H1         26.5943   43.3564   17.1531 H           1 HNT       0.0480
     17 H2         28.2920   43.4951   16.6601 H           1 HNT       0.0480
     18 H3         29.1075   43.3732   18.9012 H           1 HNT       0.0897
     19 H4         26.6402   45.5658   20.6678 H           1 HNT       0.0965
     20 H5         28.3991   45.4295   20.5126 H           1 HNT       0.0965
     21 H6         27.2778   47.8498   19.6250 H           1 HNT       0.0612
     22 H7         27.1865   47.8651   15.4056 H           1 HNT       0.0619
     23 H8         27.3840   45.4863   15.3837 H           1 HNT       0.0555
     24 H9         27.0155   41.0257   17.2289 H           1 HNT       0.2097
     25 H10        26.9466   41.3078   19.3310 H           1 HNT       0.0615
     26 H11        28.6974   41.1769   19.4475 H           1 HNT       0.0615
     27 H12        27.5545   43.3022   20.7564 H           1 HNT       0.2032
     28 H13        26.2904   43.5668   19.7207 H           1 HNT       0.2032
@<TRIPOS>BOND
     1     2     1   1
     2     1    11   1
     3     2    10   1
     4    15     2   1
     5    12     3   2
     6    14     4   1
     7     4    15   1
     8     6     5  ar
     9     5    14  ar
    10     6     7  ar
    11     6    12   1
    12     7     8  ar
    13     8    11  ar
    14    10     9   1
    15    11    14  ar
    16    12    13   2
    17     1    16   1
    18     1    17   1
    19     2    18   1
    20     4    19   1
    21     4    20   1
    22     5    21   1
    23     7    22   1
    24     8    23   1
    25     9    24   1
    26    10    25   1
    27    10    26   1
    28    15    27   1
    29    15    28   1
@<TRIPOS>SUBSTRUCTURE
     1  HNT      1

