@<TRIPOS>MOLECULE
2g70_ligand_033
    28    29
SMALL
GAST_HUCK
****
This file was generated by PARSER (from files_GN.cpp)

@<TRIPOS>ATOM
      1 C1         27.9368   52.3098   17.7343 C.3         1 HNT       0.0268
      2 C2         26.8102   52.1098   16.6729 C.3         1 HNT       0.0116
      3 O2         27.8903   46.8610   21.3484 O.2         1 HNT       0.1750
      4 C4         26.6858   49.6701   17.2038 C.3         1 HNT      -0.0003
      5 C5         27.5926   48.8764   19.4045 C.ar        1 HNT      -0.0189
      6 C6         28.3569   49.0401   20.5857 C.ar        1 HNT       0.1861
      7 C7         28.9982   50.2898   20.7807 C.ar        1 HNT      -0.0321
      8 C8         28.8575   51.3360   19.8568 C.ar        1 HNT      -0.0576
      9 O22        25.0371   53.8204   16.8107 O.3         1 HNT      -0.3893
     10 C22        25.4004   52.5006   17.2060 C.3         1 HNT       0.0887
     11 C8A        28.0821   51.1684   18.6876 C.ar        1 HNT      -0.0245
     12 N1         28.4652   48.0315   21.5018 N.2         1 HNT       0.3079
     13 O3         29.0794   48.1545   22.5334 O.2         1 HNT       0.1750
     14 C4A        27.4651   49.9107   18.4482 C.ar        1 HNT       0.0118
     15 N41        26.8548   50.7178   16.1695 N.4         1 HNT       0.2433
     16 H1         27.7165   53.2227   18.2967 H           1 HNT       0.0480
     17 H2         28.8963   52.4658   17.2247 H           1 HNT       0.0480
     18 H3         27.0383   52.7412   15.8070 H           1 HNT       0.0897
     19 H4         25.6235   49.5894   17.4425 H           1 HNT       0.0965
     20 H5         27.0008   48.7314   16.7453 H           1 HNT       0.0965
     21 H6         27.1426   47.9811   19.2313 H           1 HNT       0.0612
     22 H7         29.5847   50.4455   21.6075 H           1 HNT       0.0619
     23 H8         29.3248   52.2235   20.0402 H           1 HNT       0.0555
     24 H9         24.7447   54.2912   17.6374 H           1 HNT       0.2097
     25 H10        25.3840   52.4269   18.2952 H           1 HNT       0.0615
     26 H11        24.6366   51.8342   16.8166 H           1 HNT       0.0615
     27 H12        27.7638   50.5728   15.7147 H           1 HNT       0.2032
     28 H13        26.1249   50.6000   15.4584 H           1 HNT       0.2032
@<TRIPOS>BOND
     1     2     1   1
     2     1    11   1
     3     2    10   1
     4    15     2   1
     5    12     3   2
     6    14     4   1
     7     4    15   1
     8     6     5  ar
     9     5    14  ar
    10     6     7  ar
    11     6    12   1
    12     7     8  ar
    13     8    11  ar
    14    10     9   1
    15    11    14  ar
    16    12    13   2
    17     1    16   1
    18     1    17   1
    19     2    18   1
    20     4    19   1
    21     4    20   1
    22     5    21   1
    23     7    22   1
    24     8    23   1
    25     9    24   1
    26    10    25   1
    27    10    26   1
    28    15    27   1
    29    15    28   1
@<TRIPOS>SUBSTRUCTURE
     1  HNT      1

