@<TRIPOS>MOLECULE
2g70_ligand_031
    28    29
SMALL
GAST_HUCK
****
This file was generated by PARSER (from files_GN.cpp)

@<TRIPOS>ATOM
      1 C1         27.3659   47.0663   21.1562 C.3         1 HNT       0.0268
      2 C2         28.7733   47.6092   21.5409 C.3         1 HNT       0.0116
      3 O2         28.3879   41.4707   17.9717 O.2         1 HNT       0.1750
      4 C4         29.8271   46.0010   19.9454 C.3         1 HNT      -0.0003
      5 C5         28.5458   43.9433   19.2976 C.ar        1 HNT      -0.0189
      6 C6         27.3551   43.1809   19.2028 C.ar        1 HNT       0.1861
      7 C7         26.1818   43.7243   19.7778 C.ar        1 HNT      -0.0321
      8 C8         26.1974   44.9703   20.4310 C.ar        1 HNT      -0.0576
      9 O22        29.8246   49.8865   21.5035 O.3         1 HNT      -0.3893
     10 C22        28.7444   49.1024   22.0049 C.3         1 HNT       0.0887
     11 C8A        27.3857   45.7244   20.5130 C.ar        1 HNT      -0.0245
     12 N1         27.3370   41.9772   18.5590 N.2         1 HNT       0.3079
     13 O3         26.3310   41.3288   18.4297 O.2         1 HNT       0.1750
     14 C4A        28.5661   45.2172   19.9139 C.ar        1 HNT       0.0118
     15 N41        29.6718   47.4093   20.3817 N.4         1 HNT       0.2433
     16 H1         26.9089   47.7503   20.4397 H           1 HNT       0.0480
     17 H2         26.7431   47.0366   22.0538 H           1 HNT       0.0480
     18 H3         29.1504   47.0041   22.3704 H           1 HNT       0.0897
     19 H4         30.2711   46.0121   18.9480 H           1 HNT       0.0965
     20 H5         30.5260   45.5037   20.6165 H           1 HNT       0.0965
     21 H6         29.4126   43.5803   18.8928 H           1 HNT       0.0612
     22 H7         25.2941   43.2214   19.7190 H           1 HNT       0.0619
     23 H8         25.3291   45.3266   20.8397 H           1 HNT       0.0555
     24 H9         30.6303   49.4839   21.8847 H           1 HNT       0.2097
     25 H10        28.7904   49.1463   23.0955 H           1 HNT       0.0615
     26 H11        27.8284   49.6026   21.6862 H           1 HNT       0.0615
     27 H12        30.6001   47.7672   20.6170 H           1 HNT       0.2032
     28 H13        29.2996   47.9671   19.6095 H           1 HNT       0.2032
@<TRIPOS>BOND
     1     2     1   1
     2     1    11   1
     3     2    10   1
     4    15     2   1
     5    12     3   2
     6    14     4   1
     7     4    15   1
     8     6     5  ar
     9     5    14  ar
    10     6     7  ar
    11     6    12   1
    12     7     8  ar
    13     8    11  ar
    14    10     9   1
    15    11    14  ar
    16    12    13   2
    17     1    16   1
    18     1    17   1
    19     2    18   1
    20     4    19   1
    21     4    20   1
    22     5    21   1
    23     7    22   1
    24     8    23   1
    25     9    24   1
    26    10    25   1
    27    10    26   1
    28    15    27   1
    29    15    28   1
@<TRIPOS>SUBSTRUCTURE
     1  HNT      1

