@<TRIPOS>MOLECULE
2g70_ligand_026
    28    29
SMALL
GAST_HUCK
****
This file was generated by PARSER (from files_GN.cpp)

@<TRIPOS>ATOM
      1 C1         25.8726   42.5952   19.3547 C.3         1 HNT       0.0268
      2 C2         26.5856   41.9383   18.1338 C.3         1 HNT       0.0116
      3 O2         28.7079   48.4024   19.9450 O.2         1 HNT       0.1750
      4 C4         27.3420   44.2089   17.3597 C.3         1 HNT      -0.0003
      5 C5         27.6236   45.9658   19.1166 C.ar        1 HNT      -0.0189
      6 C6         27.3959   46.5224   20.3979 C.ar        1 HNT       0.1861
      7 C7         26.5809   45.7877   21.2921 C.ar        1 HNT      -0.0321
      8 C8         26.0734   44.5269   20.9410 C.ar        1 HNT      -0.0576
      9 O22        29.0186   42.1865   18.6546 O.3         1 HNT      -0.3893
     10 C22        27.9380   41.2597   18.4832 C.3         1 HNT       0.0887
     11 C8A        26.3607   43.9577   19.6829 C.ar        1 HNT      -0.0245
     12 N1         27.9481   47.7173   20.7546 N.2         1 HNT       0.3079
     13 O3         27.8033   48.2031   21.8468 O.2         1 HNT       0.1750
     14 C4A        27.0945   44.7139   18.7385 C.ar        1 HNT       0.0118
     15 N41        26.7001   42.9173   17.0267 N.4         1 HNT       0.2433
     16 H1         25.9941   41.9337   20.2172 H           1 HNT       0.0480
     17 H2         24.8038   42.6704   19.1387 H           1 HNT       0.0480
     18 H3         25.9308   41.1399   17.7716 H           1 HNT       0.0897
     19 H4         28.4172   44.1110   17.1967 H           1 HNT       0.0965
     20 H5         26.9547   44.9449   16.6452 H           1 HNT       0.0965
     21 H6         28.1943   46.4721   18.4398 H           1 HNT       0.0612
     22 H7         26.3607   46.1546   22.2202 H           1 HNT       0.0619
     23 H8         25.5087   44.0152   21.6227 H           1 HNT       0.0555
     24 H9         29.0932   42.3140   19.6314 H           1 HNT       0.2097
     25 H10        28.1993   40.5833   17.6622 H           1 HNT       0.0615
     26 H11        27.8401   40.6592   19.3893 H           1 HNT       0.0615
     27 H12        25.7537   43.1114   16.6944 H           1 HNT       0.2032
     28 H13        27.2220   42.4836   16.2622 H           1 HNT       0.2032
@<TRIPOS>BOND
     1     2     1   1
     2     1    11   1
     3     2    10   1
     4    15     2   1
     5    12     3   2
     6    14     4   1
     7     4    15   1
     8     6     5  ar
     9     5    14  ar
    10     6     7  ar
    11     6    12   1
    12     7     8  ar
    13     8    11  ar
    14    10     9   1
    15    11    14  ar
    16    12    13   2
    17     1    16   1
    18     1    17   1
    19     2    18   1
    20     4    19   1
    21     4    20   1
    22     5    21   1
    23     7    22   1
    24     8    23   1
    25     9    24   1
    26    10    25   1
    27    10    26   1
    28    15    27   1
    29    15    28   1
@<TRIPOS>SUBSTRUCTURE
     1  HNT      1

