@<TRIPOS>MOLECULE
2g70_ligand_027
    28    29
SMALL
GAST_HUCK
****
This file was generated by PARSER (from files_GN.cpp)

@<TRIPOS>ATOM
      1 C1         28.9166   44.9031   21.1276 C.3         1 HNT       0.0268
      2 C2         27.9733   45.8931   21.8688 C.3         1 HNT       0.0116
      3 O2         26.6779   44.6827   15.0301 O.2         1 HNT       0.1750
      4 C4         27.1967   46.8002   19.6744 C.3         1 HNT      -0.0003
      5 C5         27.3459   45.2883   17.6767 C.ar        1 HNT      -0.0189
      6 C6         27.8302   44.1437   16.9958 C.ar        1 HNT       0.1861
      7 C7         28.7021   43.2819   17.7035 C.ar        1 HNT      -0.0321
      8 C8         29.0557   43.5343   19.0397 C.ar        1 HNT      -0.0576
      9 O22        25.8610   44.6772   21.3494 O.3         1 HNT      -0.3893
     10 C22        26.6545   45.2503   22.3847 C.3         1 HNT       0.0887
     11 C8A        28.5419   44.6626   19.7128 C.ar        1 HNT      -0.0245
     12 N1         27.4720   43.8933   15.7020 N.2         1 HNT       0.3079
     13 O3         27.8771   42.9397   15.0907 O.2         1 HNT       0.1750
     14 C4A        27.7125   45.5727   19.0106 C.ar        1 HNT       0.0118
     15 N41        27.7726   47.0831   21.0049 N.4         1 HNT       0.2433
     16 H1         28.9432   43.9605   21.6801 H           1 HNT       0.0480
     17 H2         29.9275   45.3173   21.1162 H           1 HNT       0.0480
     18 H3         28.5013   46.2475   22.7545 H           1 HNT       0.0897
     19 H4         26.1184   46.6999   19.7976 H           1 HNT       0.0965
     20 H5         27.3936   47.6724   19.0464 H           1 HNT       0.0965
     21 H6         26.7209   45.9365   17.1947 H           1 HNT       0.0612
     22 H7         29.0904   42.4526   17.2526 H           1 HNT       0.0619
     23 H8         29.6841   42.8855   19.5214 H           1 HNT       0.0555
     24 H9         24.9634   45.0452   21.4901 H           1 HNT       0.2097
     25 H10        26.0636   46.0118   22.8934 H           1 HNT       0.0615
     26 H11        26.8896   44.4656   23.1087 H           1 HNT       0.0615
     27 H12        28.6871   47.5250   20.8644 H           1 HNT       0.2032
     28 H13        27.1593   47.7625   21.4613 H           1 HNT       0.2032
@<TRIPOS>BOND
     1     2     1   1
     2     1    11   1
     3     2    10   1
     4    15     2   1
     5    12     3   2
     6    14     4   1
     7     4    15   1
     8     6     5  ar
     9     5    14  ar
    10     6     7  ar
    11     6    12   1
    12     7     8  ar
    13     8    11  ar
    14    10     9   1
    15    11    14  ar
    16    12    13   2
    17     1    16   1
    18     1    17   1
    19     2    18   1
    20     4    19   1
    21     4    20   1
    22     5    21   1
    23     7    22   1
    24     8    23   1
    25     9    24   1
    26    10    25   1
    27    10    26   1
    28    15    27   1
    29    15    28   1
@<TRIPOS>SUBSTRUCTURE
     1  HNT      1

