@<TRIPOS>MOLECULE
2g70_ligand_039
    28    29
SMALL
GAST_HUCK
****
This file was generated by PARSER (from files_GN.cpp)

@<TRIPOS>ATOM
      1 C1         25.2270   43.5477   11.2490 C.3         1 HNT       0.0268
      2 C2         26.5430   44.1174   10.6429 C.3         1 HNT       0.0116
      3 O2         26.8026   41.9068   17.3519 O.2         1 HNT       0.1750
      4 C4         27.8647   43.1055   12.4870 C.3         1 HNT      -0.0003
      5 C5         26.7058   42.6353   14.6541 C.ar        1 HNT      -0.0189
      6 C6         25.5537   42.5120   15.4675 C.ar        1 HNT       0.1861
      7 C7         24.3018   42.7816   14.8641 C.ar        1 HNT      -0.0321
      8 C8         24.2001   43.1418   13.5108 C.ar        1 HNT      -0.0576
      9 O22        25.8179   45.5071    8.7573 O.3         1 HNT      -0.3893
     10 C22        26.4584   44.2804    9.1045 C.3         1 HNT       0.0887
     11 C8A        25.3532   43.2324   12.7004 C.ar        1 HNT      -0.0245
     12 N1         25.6532   42.1515   16.7812 N.2         1 HNT       0.3079
     13 O3         24.6933   42.0162   17.4950 O.2         1 HNT       0.1750
     14 C4A        26.6185   42.9746   13.2839 C.ar        1 HNT       0.0118
     15 N41        27.6598   43.2267   11.0242 N.4         1 HNT       0.2433
     16 H1         24.9457   42.6321   10.7262 H           1 HNT       0.0480
     17 H2         24.4239   44.2651   11.0834 H           1 HNT       0.0480
     18 H3         26.7531   45.1066   11.0673 H           1 HNT       0.0897
     19 H4         28.4936   42.2314   12.6532 H           1 HNT       0.0965
     20 H5         28.4051   43.9869   12.8427 H           1 HNT       0.0965
     21 H6         27.6296   42.4673   15.0589 H           1 HNT       0.0612
     22 H7         23.4398   42.7214   15.4084 H           1 HNT       0.0619
     23 H8         23.2730   43.3277   13.1197 H           1 HNT       0.0555
     24 H9         24.9889   45.5327    9.2727 H           1 HNT       0.2097
     25 H10        25.9199   43.4469    8.6450 H           1 HNT       0.0615
     26 H11        27.4639   44.3123    8.6872 H           1 HNT       0.0615
     27 H12        28.5212   43.6043   10.6294 H           1 HNT       0.2032
     28 H13        27.4905   42.2991   10.6309 H           1 HNT       0.2032
@<TRIPOS>BOND
     1     2     1   1
     2     1    11   1
     3     2    10   1
     4    15     2   1
     5    12     3   2
     6    14     4   1
     7     4    15   1
     8     6     5  ar
     9     5    14  ar
    10     6     7  ar
    11     6    12   1
    12     7     8  ar
    13     8    11  ar
    14    10     9   1
    15    11    14  ar
    16    12    13   2
    17     1    16   1
    18     1    17   1
    19     2    18   1
    20     4    19   1
    21     4    20   1
    22     5    21   1
    23     7    22   1
    24     8    23   1
    25     9    24   1
    26    10    25   1
    27    10    26   1
    28    15    27   1
    29    15    28   1
@<TRIPOS>SUBSTRUCTURE
     1  HNT      1

