@<TRIPOS>MOLECULE
2g70_ligand_038
    28    29
SMALL
GAST_HUCK
****
This file was generated by PARSER (from files_GN.cpp)

@<TRIPOS>ATOM
      1 C1         26.7867   52.1689   16.5554 C.3         1 HNT       0.0268
      2 C2         26.3041   50.9784   15.6717 C.3         1 HNT       0.0116
      3 O2         28.1756   49.5830   22.3624 O.2         1 HNT       0.1750
      4 C4         27.1682   49.3484   17.3570 C.3         1 HNT      -0.0003
      5 C5         27.5844   50.1359   19.6921 C.ar        1 HNT      -0.0189
      6 C6         27.6563   51.1372   20.6930 C.ar        1 HNT       0.1861
      7 C7         27.4363   52.4777   20.2934 C.ar        1 HNT      -0.0321
      8 C8         27.1582   52.8007   18.9574 C.ar        1 HNT      -0.0576
      9 O22        23.9720   51.6522   15.2037 O.3         1 HNT      -0.3893
     10 C22        24.7897   50.6624   15.8262 C.3         1 HNT       0.0887
     11 C8A        27.0722   51.7976   17.9697 C.ar        1 HNT      -0.0245
     12 N1         27.9201   50.8089   21.9891 N.2         1 HNT       0.3079
     13 O3         27.9158   51.6212   22.8777 O.2         1 HNT       0.1750
     14 C4A        27.2964   50.4487   18.3465 C.ar        1 HNT       0.0118
     15 N41        27.1611   49.7998   15.9502 N.4         1 HNT       0.2433
     16 H1         26.0372   52.9667   16.5198 H           1 HNT       0.0480
     17 H2         27.7145   52.5692   16.1332 H           1 HNT       0.0480
     18 H3         26.4699   51.2398   14.6220 H           1 HNT       0.0897
     19 H4         26.2510   48.7948   17.5627 H           1 HNT       0.0965
     20 H5         28.0000   48.6514   17.4635 H           1 HNT       0.0965
     21 H6         27.7361   49.1556   19.9424 H           1 HNT       0.0612
     22 H7         27.4885   53.2389   20.9728 H           1 HNT       0.0619
     23 H8         27.0044   53.7773   18.7083 H           1 HNT       0.0555
     24 H9         24.1722   51.5931   14.2450 H           1 HNT       0.2097
     25 H10        24.5189   50.6120   16.8789 H           1 HNT       0.0615
     26 H11        24.5715   49.6939   15.3785 H           1 HNT       0.0615
     27 H12        28.1216   50.0398   15.6902 H           1 HNT       0.2032
     28 H13        26.8578   49.0207   15.3654 H           1 HNT       0.2032
@<TRIPOS>BOND
     1     2     1   1
     2     1    11   1
     3     2    10   1
     4    15     2   1
     5    12     3   2
     6    14     4   1
     7     4    15   1
     8     6     5  ar
     9     5    14  ar
    10     6     7  ar
    11     6    12   1
    12     7     8  ar
    13     8    11  ar
    14    10     9   1
    15    11    14  ar
    16    12    13   2
    17     1    16   1
    18     1    17   1
    19     2    18   1
    20     4    19   1
    21     4    20   1
    22     5    21   1
    23     7    22   1
    24     8    23   1
    25     9    24   1
    26    10    25   1
    27    10    26   1
    28    15    27   1
    29    15    28   1
@<TRIPOS>SUBSTRUCTURE
     1  HNT      1

