@<TRIPOS>MOLECULE
2g70_ligand_028
    28    29
SMALL
GAST_HUCK
****
This file was generated by PARSER (from files_GN.cpp)

@<TRIPOS>ATOM
      1 C1         27.4228   44.7900   16.1009 C.3         1 HNT       0.0268
      2 C2         27.4808   43.3861   15.4445 C.3         1 HNT       0.0116
      3 O2         25.5359   43.7945   22.2674 O.2         1 HNT       0.1750
      4 C4         26.1701   42.4068   17.3295 C.3         1 HNT      -0.0003
      5 C5         26.2239   43.6067   19.5430 C.ar        1 HNT      -0.0189
      6 C6         26.5042   44.7384   20.3546 C.ar        1 HNT       0.1861
      7 C7         27.0892   45.8667   19.7324 C.ar        1 HNT      -0.0321
      8 C8         27.3387   45.8827   18.3489 C.ar        1 HNT      -0.0576
      9 O22        27.7169   44.7163   13.3189 O.3         1 HNT      -0.3893
     10 C22        27.6053   43.4058   13.8867 C.3         1 HNT       0.0887
     11 C8A        27.0801   44.7475   17.5538 C.ar        1 HNT      -0.0245
     12 N1         26.2103   44.7518   21.6873 N.2         1 HNT       0.3079
     13 O3         26.5476   45.6447   22.4271 O.2         1 HNT       0.1750
     14 C4A        26.4960   43.6048   18.1533 C.ar        1 HNT       0.0118
     15 N41        26.2863   42.6174   15.8659 N.4         1 HNT       0.2433
     16 H1         26.6783   45.4042   15.6029 H           1 HNT       0.0480
     17 H2         28.4010   45.2586   15.9809 H           1 HNT       0.0480
     18 H3         28.3690   42.8852   15.8514 H           1 HNT       0.0897
     19 H4         25.1372   42.1011   17.5295 H           1 HNT       0.0965
     20 H5         26.8271   41.5836   17.6264 H           1 HNT       0.0965
     21 H6         25.8223   42.7682   19.9599 H           1 HNT       0.0612
     22 H7         27.3097   46.7018   20.2739 H           1 HNT       0.0619
     23 H8         27.6977   46.7317   17.9223 H           1 HNT       0.0555
     24 H9         28.3135   44.6270   12.5209 H           1 HNT       0.2097
     25 H10        26.7231   42.9466   13.4158 H           1 HNT       0.0615
     26 H11        28.4718   42.8160   13.5815 H           1 HNT       0.0615
     27 H12        26.2934   41.7025   15.4097 H           1 HNT       0.2032
     28 H13        25.4674   43.1269   15.5556 H           1 HNT       0.2032
@<TRIPOS>BOND
     1     2     1   1
     2     1    11   1
     3     2    10   1
     4    15     2   1
     5    12     3   2
     6    14     4   1
     7     4    15   1
     8     6     5  ar
     9     5    14  ar
    10     6     7  ar
    11     6    12   1
    12     7     8  ar
    13     8    11  ar
    14    10     9   1
    15    11    14  ar
    16    12    13   2
    17     1    16   1
    18     1    17   1
    19     2    18   1
    20     4    19   1
    21     4    20   1
    22     5    21   1
    23     7    22   1
    24     8    23   1
    25     9    24   1
    26    10    25   1
    27    10    26   1
    28    15    27   1
    29    15    28   1
@<TRIPOS>SUBSTRUCTURE
     1  HNT      1

