@<TRIPOS>MOLECULE
2g70_ligand_034
    28    29
SMALL
GAST_HUCK
****
This file was generated by PARSER (from files_GN.cpp)

@<TRIPOS>ATOM
      1 C1         27.6612   50.2111   18.3170 C.3         1 HNT       0.0268
      2 C2         26.5855   51.0440   17.5704 C.3         1 HNT       0.0116
      3 O2         28.0159   52.8569   24.2439 O.2         1 HNT       0.1750
      4 C4         26.7345   52.8248   19.2876 C.3         1 HNT      -0.0003
      5 C5         27.6041   52.2268   21.5568 C.ar        1 HNT      -0.0189
      6 C6         28.2739   51.3638   22.4572 C.ar        1 HNT       0.1861
      7 C7         28.7620   50.1328   21.9522 C.ar        1 HNT      -0.0321
      8 C8         28.5683   49.7680   20.6091 C.ar        1 HNT      -0.0576
      9 O22        25.5140   51.4933   15.4350 O.3         1 HNT      -0.3893
     10 C22        26.5949   50.7906   16.0422 C.3         1 HNT       0.0887
     11 C8A        27.8797   50.6253   19.7264 C.ar        1 HNT      -0.0245
     12 N1         28.4482   51.7197   23.7617 N.2         1 HNT       0.3079
     13 O3         29.0165   51.0137   24.5519 O.2         1 HNT       0.1750
     14 C4A        27.4242   51.8798   20.1999 C.ar        1 HNT       0.0118
     15 N41        26.8183   52.4788   17.8516 N.4         1 HNT       0.2433
     16 H1         28.6183   50.3078   17.8016 H           1 HNT       0.0480
     17 H2         27.3382   49.1655   18.2984 H           1 HNT       0.0480
     18 H3         25.6022   50.7517   17.9528 H           1 HNT       0.0897
     19 H4         27.1716   53.8208   19.4019 H           1 HNT       0.0965
     20 H5         25.6822   52.8614   19.5791 H           1 HNT       0.0965
     21 H6         27.2462   53.1280   21.8835 H           1 HNT       0.0612
     22 H7         29.2574   49.4816   22.5659 H           1 HNT       0.0619
     23 H8         28.9305   48.8704   20.2798 H           1 HNT       0.0555
     24 H9         25.7137   51.4997   14.4755 H           1 HNT       0.2097
     25 H10        26.4953   49.7233   15.8232 H           1 HNT       0.0615
     26 H11        27.5329   51.1492   15.6158 H           1 HNT       0.0615
     27 H12        26.1323   53.0383   17.3407 H           1 HNT       0.2032
     28 H13        27.7522   52.7244   17.5184 H           1 HNT       0.2032
@<TRIPOS>BOND
     1     2     1   1
     2     1    11   1
     3     2    10   1
     4    15     2   1
     5    12     3   2
     6    14     4   1
     7     4    15   1
     8     6     5  ar
     9     5    14  ar
    10     6     7  ar
    11     6    12   1
    12     7     8  ar
    13     8    11  ar
    14    10     9   1
    15    11    14  ar
    16    12    13   2
    17     1    16   1
    18     1    17   1
    19     2    18   1
    20     4    19   1
    21     4    20   1
    22     5    21   1
    23     7    22   1
    24     8    23   1
    25     9    24   1
    26    10    25   1
    27    10    26   1
    28    15    27   1
    29    15    28   1
@<TRIPOS>SUBSTRUCTURE
     1  HNT      1

