@<TRIPOS>MOLECULE
2g70_ligand_029
    28    29
SMALL
GAST_HUCK
****
This file was generated by PARSER (from files_GN.cpp)

@<TRIPOS>ATOM
      1 C1         28.8233   52.5810   21.0892 C.3         1 HNT       0.0268
      2 C2         29.4523   51.1931   21.4245 C.3         1 HNT       0.0116
      3 O2         28.1131   55.6916   26.7518 O.2         1 HNT       0.1750
      4 C4         30.0380   52.0505   23.7298 C.3         1 HNT      -0.0003
      5 C5         28.7690   54.0091   24.6258 C.ar        1 HNT      -0.0189
      6 C6         27.8793   55.1005   24.5046 C.ar        1 HNT       0.1861
      7 C7         27.3090   55.3318   23.2278 C.ar        1 HNT      -0.0321
      8 C8         27.6088   54.5096   22.1285 C.ar        1 HNT      -0.0576
      9 O22        27.4237   50.6065   22.6623 O.3         1 HNT      -0.3893
     10 C22        28.4106   50.0980   21.7642 C.3         1 HNT       0.0887
     11 C8A        28.4906   53.4204   22.2719 C.ar        1 HNT      -0.0245
     12 N1         27.5865   55.8931   25.5809 N.2         1 HNT       0.3079
     13 O3         26.8302   56.8238   25.5155 O.2         1 HNT       0.1750
     14 C4A        29.0842   53.1730   23.5312 C.ar        1 HNT       0.0118
     15 N41        30.4802   51.3761   22.4840 N.4         1 HNT       0.2433
     16 H1         27.9328   52.4238   20.4795 H           1 HNT       0.0480
     17 H2         29.5161   53.1504   20.4669 H           1 HNT       0.0480
     18 H3         29.9855   50.8453   20.5307 H           1 HNT       0.0897
     19 H4         29.5809   51.3172   24.3971 H           1 HNT       0.0965
     20 H5         30.9425   52.4378   24.2087 H           1 HNT       0.0965
     21 H6         29.2059   53.8144   25.5249 H           1 HNT       0.0612
     22 H7         26.6586   56.1153   23.0875 H           1 HNT       0.0619
     23 H8         27.1856   54.7194   21.2181 H           1 HNT       0.0555
     24 H9         27.6527   50.2238   23.5668 H           1 HNT       0.2097
     25 H10        28.9006   49.2274   22.2129 H           1 HNT       0.0615
     26 H11        27.8960   49.7891   20.8541 H           1 HNT       0.0615
     27 H12        31.2318   51.9466   22.0777 H           1 HNT       0.2032
     28 H13        30.8711   50.4545   22.7151 H           1 HNT       0.2032
@<TRIPOS>BOND
     1     2     1   1
     2     1    11   1
     3     2    10   1
     4    15     2   1
     5    12     3   2
     6    14     4   1
     7     4    15   1
     8     6     5  ar
     9     5    14  ar
    10     6     7  ar
    11     6    12   1
    12     7     8  ar
    13     8    11  ar
    14    10     9   1
    15    11    14  ar
    16    12    13   2
    17     1    16   1
    18     1    17   1
    19     2    18   1
    20     4    19   1
    21     4    20   1
    22     5    21   1
    23     7    22   1
    24     8    23   1
    25     9    24   1
    26    10    25   1
    27    10    26   1
    28    15    27   1
    29    15    28   1
@<TRIPOS>SUBSTRUCTURE
     1  HNT      1

