@<TRIPOS>MOLECULE
2g70_ligand_015
    28    29
SMALL
GAST_HUCK
****
This file was generated by PARSER (from files_GN.cpp)

@<TRIPOS>ATOM
      1 C1         27.4284   43.5882   16.8906 C.3         1 HNT       0.0268
      2 C2         26.5383   42.5014   17.5583 C.3         1 HNT       0.0116
      3 O2         26.2053   43.1881   10.5180 O.2         1 HNT       0.1750
      4 C4         26.1607   41.4110   15.3427 C.3         1 HNT      -0.0003
      5 C5         26.4737   42.8056   13.2808 C.ar        1 HNT      -0.0189
      6 C6         26.9292   43.9627   12.6022 C.ar        1 HNT       0.1861
      7 C7         27.5727   44.9645   13.3670 C.ar        1 HNT      -0.0321
      8 C8         27.7354   44.8305   14.7540 C.ar        1 HNT      -0.0576
      9 O22        27.4793   43.3525   19.6980 O.3         1 HNT      -0.3893
     10 C22        26.9299   42.2123   19.0370 C.3         1 HNT       0.0887
     11 C8A        27.2584   43.6847   15.4207 C.ar        1 HNT      -0.0245
     12 N1         26.7519   44.1111   11.2585 N.2         1 HNT       0.3079
     13 O3         27.0863   45.1041   10.6696 O.2         1 HNT       0.1750
     14 C4A        26.6465   42.6476   14.6744 C.ar        1 HNT       0.0118
     15 N41        26.6069   41.2604   16.7484 N.4         1 HNT       0.2433
     16 H1         28.4840   43.3831   17.0915 H           1 HNT       0.0480
     17 H2         27.1698   44.5526   17.3402 H           1 HNT       0.0480
     18 H3         25.5034   42.8577   17.5519 H           1 HNT       0.0897
     19 H4         26.5278   40.5374   14.7974 H           1 HNT       0.0965
     20 H5         25.0687   41.3966   15.3123 H           1 HNT       0.0965
     21 H6         26.0094   42.0600   12.7573 H           1 HNT       0.0612
     22 H7         27.9398   45.8054   12.9195 H           1 HNT       0.0619
     23 H8         28.1959   45.5827   15.2744 H           1 HNT       0.0555
     24 H9         27.6961   43.0347   20.5955 H           1 HNT       0.2097
     25 H10        27.6647   41.4041   19.0889 H           1 HNT       0.0615
     26 H11        26.0427   41.9003   19.5949 H           1 HNT       0.0615
     27 H12        26.0384   40.5350   17.1920 H           1 HNT       0.2032
     28 H13        27.5791   40.9427   16.7363 H           1 HNT       0.2032
@<TRIPOS>BOND
     1     2     1   1
     2     1    11   1
     3     2    10   1
     4    15     2   1
     5    12     3   2
     6    14     4   1
     7     4    15   1
     8     6     5  ar
     9     5    14  ar
    10     6     7  ar
    11     6    12   1
    12     7     8  ar
    13     8    11  ar
    14    10     9   1
    15    11    14  ar
    16    12    13   2
    17     1    16   1
    18     1    17   1
    19     2    18   1
    20     4    19   1
    21     4    20   1
    22     5    21   1
    23     7    22   1
    24     8    23   1
    25     9    24   1
    26    10    25   1
    27    10    26   1
    28    15    27   1
    29    15    28   1
@<TRIPOS>SUBSTRUCTURE
     1  HNT      1

