@<TRIPOS>MOLECULE
2g70_ligand_014
    28    29
SMALL
GAST_HUCK
****
This file was generated by PARSER (from files_GN.cpp)

@<TRIPOS>ATOM
      1 C1         28.4678   51.7190   22.5049 C.3         1 HNT       0.0268
      2 C2         29.9305   52.0911   22.8870 C.3         1 HNT       0.0116
      3 O2         28.5873   50.7719   16.0682 O.2         1 HNT       0.1750
      4 C4         30.7450   51.1819   20.6876 C.3         1 HNT      -0.0003
      5 C5         29.1241   51.1577   18.7857 C.ar        1 HNT      -0.0189
      6 C6         27.8201   51.2021   18.2361 C.ar        1 HNT       0.1861
      7 C7         26.7478   51.4575   19.1235 C.ar        1 HNT      -0.0321
      8 C8         26.9627   51.6408   20.5003 C.ar        1 HNT      -0.0576
      9 O22        30.4345   53.9580   21.3314 O.3         1 HNT      -0.3893
     10 C22        30.2623   53.5994   22.6985 C.3         1 HNT       0.0887
     11 C8A        28.2634   51.5563   21.0398 C.ar        1 HNT      -0.0245
     12 N1         27.6081   50.9812   16.9062 N.2         1 HNT       0.3079
     13 O3         26.5089   50.9246   16.4219 O.2         1 HNT       0.1750
     14 C4A        29.3542   51.2917   20.1721 C.ar        1 HNT       0.0118
     15 N41        30.8719   51.2019   22.1641 N.4         1 HNT       0.2433
     16 H1         27.7932   52.4828   22.9019 H           1 HNT       0.0480
     17 H2         28.2046   50.7710   22.9819 H           1 HNT       0.0480
     18 H3         30.0570   51.8778   23.9525 H           1 HNT       0.0897
     19 H4         31.3380   52.0010   20.2751 H           1 HNT       0.0965
     20 H5         31.1828   50.2430   20.3384 H           1 HNT       0.0965
     21 H6         29.9272   51.0057   18.1725 H           1 HNT       0.0612
     22 H7         25.7927   51.5217   18.7708 H           1 HNT       0.0619
     23 H8         26.1607   51.8281   21.1080 H           1 HNT       0.0555
     24 H9         30.2702   54.9207   21.2923 H           1 HNT       0.2097
     25 H10        31.1831   53.8437   23.2316 H           1 HNT       0.0615
     26 H11        29.4547   54.2050   23.1162 H           1 HNT       0.0615
     27 H12        30.7278   50.2463   22.5013 H           1 HNT       0.2032
     28 H13        31.8282   51.4745   22.4038 H           1 HNT       0.2032
@<TRIPOS>BOND
     1     2     1   1
     2     1    11   1
     3     2    10   1
     4    15     2   1
     5    12     3   2
     6    14     4   1
     7     4    15   1
     8     6     5  ar
     9     5    14  ar
    10     6     7  ar
    11     6    12   1
    12     7     8  ar
    13     8    11  ar
    14    10     9   1
    15    11    14  ar
    16    12    13   2
    17     1    16   1
    18     1    17   1
    19     2    18   1
    20     4    19   1
    21     4    20   1
    22     5    21   1
    23     7    22   1
    24     8    23   1
    25     9    24   1
    26    10    25   1
    27    10    26   1
    28    15    27   1
    29    15    28   1
@<TRIPOS>SUBSTRUCTURE
     1  HNT      1

