@<TRIPOS>MOLECULE
2g70_ligand_016
    28    29
SMALL
GAST_HUCK
****
This file was generated by PARSER (from files_GN.cpp)

@<TRIPOS>ATOM
      1 C1         27.3943   52.3732   18.3678 C.3         1 HNT       0.0268
      2 C2         27.6431   51.0217   17.6326 C.3         1 HNT       0.0116
      3 O2         29.0197   51.2453   24.5451 O.2         1 HNT       0.1750
      4 C4         27.8460   49.7969   19.7638 C.3         1 HNT      -0.0003
      5 C5         28.2902   51.1205   21.8550 C.ar        1 HNT      -0.0189
      6 C6         28.3316   52.3363   22.5964 C.ar        1 HNT       0.1861
      7 C7         27.9814   53.5265   21.9207 C.ar        1 HNT      -0.0321
      8 C8         27.6759   53.5250   20.5518 C.ar        1 HNT      -0.0576
      9 O22        25.7621   51.6078   16.1081 O.3         1 HNT      -0.3893
     10 C22        27.0470   50.9994   16.2026 C.3         1 HNT       0.0887
     11 C8A        27.6704   52.3142   19.8236 C.ar        1 HNT      -0.0245
     12 N1         28.6972   52.3375   23.9077 N.2         1 HNT       0.3079
     13 O3         28.7607   53.3545   24.5616 O.2         1 HNT       0.1750
     14 C4A        27.9234   51.0932   20.4940 C.ar        1 HNT       0.0118
     15 N41        27.1275   49.9119   18.4667 N.4         1 HNT       0.2433
     16 H1         26.3635   52.7016   18.2426 H           1 HNT       0.0480
     17 H2         28.0504   53.1214   17.9214 H           1 HNT       0.0480
     18 H3         28.7237   50.8915   17.5168 H           1 HNT       0.0897
     19 H4         27.3062   49.0578   20.3603 H           1 HNT       0.0965
     20 H5         28.8545   49.4219   19.5977 H           1 HNT       0.0965
     21 H6         28.5302   50.2401   22.3179 H           1 HNT       0.0612
     22 H7         27.9746   54.4254   22.4158 H           1 HNT       0.0619
     23 H8         27.4641   54.4096   20.0880 H           1 HNT       0.0555
     24 H9         25.8880   52.3136   15.4322 H           1 HNT       0.2097
     25 H10        26.9704   49.9688   15.8570 H           1 HNT       0.0615
     26 H11        27.7297   51.5339   15.5453 H           1 HNT       0.0615
     27 H12        27.2486   49.0393   17.9495 H           1 HNT       0.2032
     28 H13        26.1296   50.0622   18.6443 H           1 HNT       0.2032
@<TRIPOS>BOND
     1     2     1   1
     2     1    11   1
     3     2    10   1
     4    15     2   1
     5    12     3   2
     6    14     4   1
     7     4    15   1
     8     6     5  ar
     9     5    14  ar
    10     6     7  ar
    11     6    12   1
    12     7     8  ar
    13     8    11  ar
    14    10     9   1
    15    11    14  ar
    16    12    13   2
    17     1    16   1
    18     1    17   1
    19     2    18   1
    20     4    19   1
    21     4    20   1
    22     5    21   1
    23     7    22   1
    24     8    23   1
    25     9    24   1
    26    10    25   1
    27    10    26   1
    28    15    27   1
    29    15    28   1
@<TRIPOS>SUBSTRUCTURE
     1  HNT      1

