@<TRIPOS>MOLECULE
2g70_ligand_045
    28    29
SMALL
GAST_HUCK
****
This file was generated by PARSER (from files_GN.cpp)

@<TRIPOS>ATOM
      1 C1         30.3987   49.1383   20.3621 C.3         1 HNT       0.0268
      2 C2         29.8217   50.4326   21.0068 C.3         1 HNT       0.0116
      3 O2         26.7079   44.3328   22.7436 O.2         1 HNT       0.1750
      4 C4         28.5933   49.1031   22.7061 C.3         1 HNT      -0.0003
      5 C5         28.0787   46.7036   22.1832 C.ar        1 HNT      -0.0189
      6 C6         28.2439   45.5170   21.4321 C.ar        1 HNT       0.1861
      7 C7         29.1566   45.5457   20.3502 C.ar        1 HNT      -0.0321
      8 C8         29.8578   46.7172   20.0188 C.ar        1 HNT      -0.0576
      9 O22        32.0290   51.4135   21.4352 O.3         1 HNT      -0.3893
     10 C22        30.7626   51.6515   20.8273 C.3         1 HNT       0.0887
     11 C8A        29.6609   47.9053   20.7532 C.ar        1 HNT      -0.0245
     12 N1         27.5509   44.3815   21.7490 N.2         1 HNT       0.3079
     13 O3         27.6675   43.3560   21.1324 O.2         1 HNT       0.1750
     14 C4A        28.7908   47.8858   21.8713 C.ar        1 HNT       0.0118
     15 N41        29.5707   50.1799   22.4421 N.4         1 HNT       0.2433
     16 H1         31.4435   49.0016   20.6577 H           1 HNT       0.0480
     17 H2         30.3722   49.2544   19.2756 H           1 HNT       0.0480
     18 H3         28.8676   50.6768   20.5255 H           1 HNT       0.0897
     19 H4         28.6856   48.8408   23.7641 H           1 HNT       0.0965
     20 H5         27.5820   49.4853   22.5394 H           1 HNT       0.0965
     21 H6         27.4340   46.7175   22.9747 H           1 HNT       0.0612
     22 H7         29.3154   44.7112   19.7832 H           1 HNT       0.0619
     23 H8         30.4994   46.7008   19.2227 H           1 HNT       0.0555
     24 H9         31.8985   51.6213   22.3863 H           1 HNT       0.2097
     25 H10        30.3163   52.5328   21.2925 H           1 HNT       0.0615
     26 H11        30.9286   51.8634   19.7688 H           1 HNT       0.0615
     27 H12        29.2224   51.0389   22.8740 H           1 HNT       0.2032
     28 H13        30.4550   49.9307   22.8862 H           1 HNT       0.2032
@<TRIPOS>BOND
     1     2     1   1
     2     1    11   1
     3     2    10   1
     4    15     2   1
     5    12     3   2
     6    14     4   1
     7     4    15   1
     8     6     5  ar
     9     5    14  ar
    10     6     7  ar
    11     6    12   1
    12     7     8  ar
    13     8    11  ar
    14    10     9   1
    15    11    14  ar
    16    12    13   2
    17     1    16   1
    18     1    17   1
    19     2    18   1
    20     4    19   1
    21     4    20   1
    22     5    21   1
    23     7    22   1
    24     8    23   1
    25     9    24   1
    26    10    25   1
    27    10    26   1
    28    15    27   1
    29    15    28   1
@<TRIPOS>SUBSTRUCTURE
     1  HNT      1

