@<TRIPOS>MOLECULE
2g70_ligand_035
    28    29
SMALL
GAST_HUCK
****
This file was generated by PARSER (from files_GN.cpp)

@<TRIPOS>ATOM
      1 C1         27.9395   44.4819   20.5839 C.3         1 HNT       0.0268
      2 C2         27.5639   45.7330   21.4297 C.3         1 HNT       0.0116
      3 O2         33.9486   45.7305   18.4242 O.2         1 HNT       0.1750
      4 C4         29.4424   47.0232   20.4931 C.3         1 HNT      -0.0003
      5 C5         31.3740   45.7449   19.5186 C.ar        1 HNT      -0.0189
      6 C6         31.9903   44.5757   19.0010 C.ar        1 HNT       0.1861
      7 C7         31.2248   43.3830   19.0018 C.ar        1 HNT      -0.0321
      8 C8         29.9127   43.3626   19.5108 C.ar        1 HNT      -0.0576
      9 O22        25.7199   44.9932   22.8742 O.3         1 HNT      -0.3893
     10 C22        26.0521   45.8265   21.7674 C.3         1 HNT       0.0887
     11 C8A        29.3259   44.5329   20.0432 C.ar        1 HNT      -0.0245
     12 N1         33.2560   44.6190   18.4850 N.2         1 HNT       0.3079
     13 O3         33.8127   43.6576   18.0222 O.2         1 HNT       0.1750
     14 C4A        30.0511   45.7511   20.0106 C.ar        1 HNT       0.0118
     15 N41        27.9727   46.9316   20.6703 N.4         1 HNT       0.2433
     16 H1         27.2553   44.3869   19.7411 H           1 HNT       0.0480
     17 H2         27.8289   43.6063   21.2157 H           1 HNT       0.0480
     18 H3         28.1098   45.7113   22.3804 H           1 HNT       0.0897
     19 H4         29.6190   47.8253   19.7888 H           1 HNT       0.0965
     20 H5         29.8911   47.3092   21.4378 H           1 HNT       0.0965
     21 H6         31.9025   46.6177   19.5347 H           1 HNT       0.0612
     22 H7         31.6162   42.5181   18.6222 H           1 HNT       0.0619
     23 H8         29.3878   42.4854   19.4912 H           1 HNT       0.0555
     24 H9         26.2818   45.3165   23.6129 H           1 HNT       0.2097
     25 H10        25.4538   45.5297   20.9040 H           1 HNT       0.0615
     26 H11        25.7929   46.8578   22.0260 H           1 HNT       0.0615
     27 H12        27.6201   47.7766   21.1388 H           1 HNT       0.2032
     28 H13        27.5248   46.8721   19.7490 H           1 HNT       0.2032
@<TRIPOS>BOND
     1     2     1   1
     2     1    11   1
     3     2    10   1
     4    15     2   1
     5    12     3   2
     6    14     4   1
     7     4    15   1
     8     6     5  ar
     9     5    14  ar
    10     6     7  ar
    11     6    12   1
    12     7     8  ar
    13     8    11  ar
    14    10     9   1
    15    11    14  ar
    16    12    13   2
    17     1    16   1
    18     1    17   1
    19     2    18   1
    20     4    19   1
    21     4    20   1
    22     5    21   1
    23     7    22   1
    24     8    23   1
    25     9    24   1
    26    10    25   1
    27    10    26   1
    28    15    27   1
    29    15    28   1
@<TRIPOS>SUBSTRUCTURE
     1  HNT      1

