@<TRIPOS>MOLECULE
2g70_ligand_030
    28    29
SMALL
GAST_HUCK
****
This file was generated by PARSER (from files_GN.cpp)

@<TRIPOS>ATOM
      1 C1         28.1714   48.7780   20.7408 C.3         1 HNT       0.0268
      2 C2         29.2763   49.0693   21.7936 C.3         1 HNT       0.0116
      3 O2         29.1205   53.1852   16.0606 O.2         1 HNT       0.1750
      4 C4         30.5633   50.4093   20.1139 C.3         1 HNT      -0.0003
      5 C5         29.2809   51.4205   18.2179 C.ar        1 HNT      -0.0189
      6 C6         28.1328   51.5450   17.4043 C.ar        1 HNT       0.1861
      7 C7         27.0136   50.7367   17.7082 C.ar        1 HNT      -0.0321
      8 C8         27.0325   49.8437   18.7885 C.ar        1 HNT      -0.0576
      9 O22        27.9467   51.1153   22.3602 O.3         1 HNT      -0.3893
     10 C22        28.9248   50.1869   22.8180 C.3         1 HNT       0.0887
     11 C8A        28.1785   49.7320   19.6038 C.ar        1 HNT      -0.0245
     12 N1         28.1071   52.4178   16.3548 N.2         1 HNT       0.3079
     13 O3         27.1390   52.5546   15.6506 O.2         1 HNT       0.1750
     14 C4A        29.3264   50.5146   19.3010 C.ar        1 HNT       0.0118
     15 N41        30.5551   49.2958   21.0890 N.4         1 HNT       0.2433
     16 H1         27.2015   48.7897   21.2439 H           1 HNT       0.0480
     17 H2         28.3144   47.7698   20.3351 H           1 HNT       0.0480
     18 H3         29.4011   48.1530   22.3761 H           1 HNT       0.0897
     19 H4         30.7269   51.3509   20.6463 H           1 HNT       0.0965
     20 H5         31.4220   50.2498   19.4489 H           1 HNT       0.0965
     21 H6         30.1100   51.9918   18.0253 H           1 HNT       0.0612
     22 H7         26.1594   50.7934   17.1466 H           1 HNT       0.0619
     23 H8         26.2053   49.2831   18.9828 H           1 HNT       0.0555
     24 H9         27.1170   50.6030   22.2750 H           1 HNT       0.2097
     25 H10        29.8307   50.7417   23.0599 H           1 HNT       0.0615
     26 H11        28.5533   49.7335   23.7420 H           1 HNT       0.0615
     27 H12        30.7846   48.4374   20.5848 H           1 HNT       0.2032
     28 H13        31.2827   49.4566   21.7914 H           1 HNT       0.2032
@<TRIPOS>BOND
     1     2     1   1
     2     1    11   1
     3     2    10   1
     4    15     2   1
     5    12     3   2
     6    14     4   1
     7     4    15   1
     8     6     5  ar
     9     5    14  ar
    10     6     7  ar
    11     6    12   1
    12     7     8  ar
    13     8    11  ar
    14    10     9   1
    15    11    14  ar
    16    12    13   2
    17     1    16   1
    18     1    17   1
    19     2    18   1
    20     4    19   1
    21     4    20   1
    22     5    21   1
    23     7    22   1
    24     8    23   1
    25     9    24   1
    26    10    25   1
    27    10    26   1
    28    15    27   1
    29    15    28   1
@<TRIPOS>SUBSTRUCTURE
     1  HNT      1

