@<TRIPOS>MOLECULE
2g70_ligand_013
    28    29
SMALL
GAST_HUCK
****
This file was generated by PARSER (from files_GN.cpp)

@<TRIPOS>ATOM
      1 C1         28.9628   50.7891   18.8689 C.3         1 HNT       0.0268
      2 C2         29.0948   51.6201   20.1735 C.3         1 HNT       0.0116
      3 O2         23.4517   52.8110   16.0454 O.2         1 HNT       0.1750
      4 C4         26.7340   52.3750   19.9650 C.3         1 HNT      -0.0003
      5 C5         25.6389   52.2734   17.7093 C.ar        1 HNT      -0.0189
      6 C6         25.5586   51.8286   16.3711 C.ar        1 HNT       0.1861
      7 C7         26.6441   51.0722   15.8650 C.ar        1 HNT      -0.0321
      8 C8         27.7499   50.7578   16.6730 C.ar        1 HNT      -0.0576
      9 O22        29.5712   50.4890   22.3354 O.3         1 HNT      -0.3893
     10 C22        30.1530   51.0322   21.1517 C.3         1 HNT       0.0887
     11 C8A        27.8079   51.1772   18.0148 C.ar        1 HNT      -0.0245
     12 N1         24.4629   52.1052   15.6004 N.2         1 HNT       0.3079
     13 O3         24.3348   51.6913   14.4777 O.2         1 HNT       0.1750
     14 C4A        26.7250   51.9364   18.5451 C.ar        1 HNT       0.0118
     15 N41        27.7571   51.7201   20.8076 N.4         1 HNT       0.2433
     16 H1         28.8493   49.7312   19.1279 H           1 HNT       0.0480
     17 H2         29.8895   50.9022   18.3007 H           1 HNT       0.0480
     18 H3         29.4261   52.6299   19.8978 H           1 HNT       0.0897
     19 H4         25.7621   52.1571   20.4166 H           1 HNT       0.0965
     20 H5         26.8887   53.4626   19.9925 H           1 HNT       0.0965
     21 H6         24.8750   52.8253   18.1046 H           1 HNT       0.0612
     22 H7         26.6394   50.7453   14.8991 H           1 HNT       0.0619
     23 H8         28.5146   50.2133   16.2688 H           1 HNT       0.0555
     24 H9         30.2055   49.7814   22.6295 H           1 HNT       0.2097
     25 H10        30.8597   51.8102   21.4724 H           1 HNT       0.0615
     26 H11        30.7437   50.2459   20.6698 H           1 HNT       0.0615
     27 H12        27.8400   52.2463   21.6773 H           1 HNT       0.2032
     28 H13        27.4297   50.7797   21.0237 H           1 HNT       0.2032
@<TRIPOS>BOND
     1     2     1   1
     2     1    11   1
     3     2    10   1
     4    15     2   1
     5    12     3   2
     6    14     4   1
     7     4    15   1
     8     6     5  ar
     9     5    14  ar
    10     6     7  ar
    11     6    12   1
    12     7     8  ar
    13     8    11  ar
    14    10     9   1
    15    11    14  ar
    16    12    13   2
    17     1    16   1
    18     1    17   1
    19     2    18   1
    20     4    19   1
    21     4    20   1
    22     5    21   1
    23     7    22   1
    24     8    23   1
    25     9    24   1
    26    10    25   1
    27    10    26   1
    28    15    27   1
    29    15    28   1
@<TRIPOS>SUBSTRUCTURE
     1  HNT      1

