@<TRIPOS>MOLECULE
2gss_ligand_011
    30    30
SMALL
GAST_HUCK
****
This file was generated by PARSER (from files_GN.cpp)

@<TRIPOS>ATOM
      1 C1         11.2529    8.2078   25.4289 C.ar        1 EAA       0.1139
      2 O2         10.0811    7.4964   25.3085 O.3         1 EAA      -0.2994
      3 C2         11.9068    8.7812   24.3055 C.ar        1 EAA       0.0881
      4 CL1        11.1812    8.6099   22.7783 Cl          1 EAA      -0.0767
      5 C3         13.0969    9.5356   24.4746 C.ar        1 EAA       0.0650
      6 CL2        13.8919   10.1821   23.1119 Cl          1 EAA      -0.0667
      7 C4         13.6155    9.7448   25.7874 C.ar        1 EAA       0.0377
      8 C5         12.9360    9.1877   26.8932 C.ar        1 EAA      -0.0512
      9 C6         11.7733    8.4271   26.7215 C.ar        1 EAA      -0.0258
     10 C7         14.7569   10.4969   26.0370 C.2         1 EAA       0.1527
     11 O1         15.8317   10.0354   25.6696 O.2         1 EAA      -0.3720
     12 C8         14.7267   11.7223   26.6448 C.2         1 EAA       0.0058
     13 C9         15.5643   11.9871   27.8237 C.3         1 EAA      -0.0152
     14 C10        15.2401   11.0913   29.0405 C.3         1 EAA      -0.0548
     15 C11        13.9773   12.7101   26.1053 C.2         1 EAA      -0.0907
     16 C12        10.2607    6.1039   24.9708 C.3         1 EAA       0.1241
     17 C13        10.5762    5.2631   26.1395 C.2         1 EAA       0.0656
     18 O           9.6965    5.1666   27.1593 O.co2       1 EAA      -0.5662
     19 OXT        11.7007    4.5246   26.1892 O.co2       1 EAA      -0.5662
     20 H1         13.2984    9.2971   27.8450 H           1 EAA       0.0644
     21 H2         11.3199    8.0295   27.5484 H           1 EAA       0.0559
     22 H3         15.4732   13.0252   28.1657 H           1 EAA       0.0432
     23 H4         16.6104   11.8415   27.5544 H           1 EAA       0.0432
     24 H5         15.8341   11.3938   29.9065 H           1 EAA       0.0253
     25 H6         15.4670   10.0463   28.8242 H           1 EAA       0.0253
     26 H7         14.1844   11.1853   29.2971 H           1 EAA       0.0253
     27 H8         13.4537   12.5718   25.2732 H           1 EAA       0.0460
     28 H9         13.9487   13.6107   26.5203 H           1 EAA       0.0460
     29 H10        11.0209    5.9660   24.1983 H           1 EAA       0.0788
     30 H11         9.3130    5.7546   24.5687 H           1 EAA       0.0788
@<TRIPOS>BOND
     1     1     2   1
     2     1     3  ar
     3     1     9  ar
     4     2    16   1
     5     3     4   1
     6     3     5  ar
     7     5     6   1
     8     5     7  ar
     9     7     8  ar
    10     7    10   1
    11     8     9  ar
    12    10    11   2
    13    10    12   1
    14    12    13   1
    15    12    15   2
    16    13    14   1
    17    16    17   1
    18    17    18  ar
    19    17    19  ar
    20     8    20   1
    21     9    21   1
    22    13    22   1
    23    13    23   1
    24    14    24   1
    25    14    25   1
    26    14    26   1
    27    15    27   1
    28    15    28   1
    29    16    29   1
    30    16    30   1
@<TRIPOS>SUBSTRUCTURE
     1  EAA      1

