@<TRIPOS>MOLECULE
2gss_ligand_036
    30    30
SMALL
GAST_HUCK
****
This file was generated by PARSER (from files_GN.cpp)

@<TRIPOS>ATOM
      1 C1         11.6759    0.2326   22.8268 C.ar        1 EAA       0.1139
      2 O2         12.4766   -0.5725   22.0491 O.3         1 EAA      -0.2994
      3 C2         11.8358    1.6429   22.8061 C.ar        1 EAA       0.0881
      4 CL1        13.0731    2.2754   21.8195 Cl          1 EAA      -0.0767
      5 C3         10.9986    2.4646   23.6051 C.ar        1 EAA       0.0650
      6 CL2        11.2500    4.1504   23.5156 Cl          1 EAA      -0.0667
      7 C4         10.0106    1.8776   24.4791 C.ar        1 EAA       0.0377
      8 C5          9.9475    0.4696   24.5179 C.ar        1 EAA      -0.0512
      9 C6         10.7467   -0.3425   23.6870 C.ar        1 EAA      -0.0258
     10 C7          9.0848    2.5993   25.2697 C.2         1 EAA       0.1527
     11 O1          8.4198    2.0169   26.1414 O.2         1 EAA      -0.3720
     12 C8          8.6980    3.8885   25.0995 C.2         1 EAA       0.0058
     13 C9          7.7843    4.2073   23.9897 C.3         1 EAA      -0.0152
     14 C10         7.6832    5.6753   23.5056 C.3         1 EAA      -0.0548
     15 C11         9.1733    4.8082   25.9774 C.2         1 EAA      -0.0907
     16 C12        11.9941   -0.8688   20.7253 C.3         1 EAA       0.1241
     17 C13        11.6118    0.3258   19.9502 C.2         1 EAA       0.0656
     18 O          10.3411    0.7667   19.9946 O.co2       1 EAA      -0.5662
     19 OXT        12.5688    1.2086   19.5810 O.co2       1 EAA      -0.5662
     20 H1          9.2996   -0.0179   25.1339 H           1 EAA       0.0644
     21 H2         10.6472   -1.3600   23.7424 H           1 EAA       0.0559
     22 H3          6.7819    3.8745   24.2584 H           1 EAA       0.0432
     23 H4          8.0912    3.6316   23.1120 H           1 EAA       0.0432
     24 H5          7.0412    5.7325   22.6247 H           1 EAA       0.0253
     25 H6          8.6734    6.0448   23.2336 H           1 EAA       0.0253
     26 H7          7.2594    6.3177   24.2773 H           1 EAA       0.0253
     27 H8          9.7746    4.5458   26.7196 H           1 EAA       0.0460
     28 H9          8.9388    5.7607   25.9017 H           1 EAA       0.0460
     29 H10        11.1596   -1.5739   20.7705 H           1 EAA       0.0788
     30 H11        12.8022   -1.3682   20.1821 H           1 EAA       0.0788
@<TRIPOS>BOND
     1     1     2   1
     2     1     3  ar
     3     1     9  ar
     4     2    16   1
     5     3     4   1
     6     3     5  ar
     7     5     6   1
     8     5     7  ar
     9     7     8  ar
    10     7    10   1
    11     8     9  ar
    12    10    11   2
    13    10    12   1
    14    12    13   1
    15    12    15   2
    16    13    14   1
    17    16    17   1
    18    17    18  ar
    19    17    19  ar
    20     8    20   1
    21     9    21   1
    22    13    22   1
    23    13    23   1
    24    14    24   1
    25    14    25   1
    26    14    26   1
    27    15    27   1
    28    15    28   1
    29    16    29   1
    30    16    30   1
@<TRIPOS>SUBSTRUCTURE
     1  EAA      1

