@<TRIPOS>MOLECULE
2gss_ligand_042
    30    30
SMALL
GAST_HUCK
****
This file was generated by PARSER (from files_GN.cpp)

@<TRIPOS>ATOM
      1 C1         11.2114    2.8132   23.3849 C.ar        1 EAA       0.1139
      2 O2         12.4223    2.1680   23.3114 O.3         1 EAA      -0.2994
      3 C2         10.9872    3.7767   24.3992 C.ar        1 EAA       0.0881
      4 CL1        12.2688    4.1995   25.4325 Cl          1 EAA      -0.0767
      5 C3          9.7130    4.3910   24.5393 C.ar        1 EAA       0.0650
      6 CL2         9.4220    5.4898   25.8149 Cl          1 EAA      -0.0667
      7 C4          8.6790    4.0825   23.6168 C.ar        1 EAA       0.0377
      8 C5          8.9131    3.1054   22.6208 C.ar        1 EAA      -0.0512
      9 C6         10.1532    2.4564   22.5230 C.ar        1 EAA      -0.0258
     10 C7          7.4359    4.6885   23.6731 C.2         1 EAA       0.1527
     11 O1          6.5616    4.1225   24.3282 O.2         1 EAA      -0.3720
     12 C8          7.1419    5.8127   22.9478 C.2         1 EAA       0.0058
     13 C9          8.0142    6.9949   23.0219 C.3         1 EAA      -0.0152
     14 C10         9.2290    6.9393   22.0627 C.3         1 EAA      -0.0548
     15 C11         6.0198    5.8419   22.2023 C.2         1 EAA      -0.0907
     16 C12        13.0176    1.9464   22.0123 C.3         1 EAA       0.1241
     17 C13        12.4056    0.8008   21.3367 C.2         1 EAA       0.0656
     18 O          11.8633    0.9254   20.0976 O.co2       1 EAA      -0.5662
     19 OXT        12.4552   -0.4299   21.8976 O.co2       1 EAA      -0.5662
     20 H1          8.1732    2.8433   21.9687 H           1 EAA       0.0644
     21 H2         10.2948    1.7366   21.8088 H           1 EAA       0.0559
     22 H3          8.3853    7.1235   24.0503 H           1 EAA       0.0432
     23 H4          7.4484    7.9057   22.7912 H           1 EAA       0.0432
     24 H5          9.8282    7.8460   22.1671 H           1 EAA       0.0253
     25 H6          8.8946    6.8675   21.0267 H           1 EAA       0.0253
     26 H7          9.8687    6.0836   22.2881 H           1 EAA       0.0253
     27 H8          5.4047    5.0639   22.1549 H           1 EAA       0.0460
     28 H9          5.7859    6.6459   21.6662 H           1 EAA       0.0460
     29 H10        14.0706    1.7099   22.1681 H           1 EAA       0.0788
     30 H11        12.9747    2.8457   21.3896 H           1 EAA       0.0788
@<TRIPOS>BOND
     1     1     2   1
     2     1     3  ar
     3     1     9  ar
     4     2    16   1
     5     3     4   1
     6     3     5  ar
     7     5     6   1
     8     5     7  ar
     9     7     8  ar
    10     7    10   1
    11     8     9  ar
    12    10    11   2
    13    10    12   1
    14    12    13   1
    15    12    15   2
    16    13    14   1
    17    16    17   1
    18    17    18  ar
    19    17    19  ar
    20     8    20   1
    21     9    21   1
    22    13    22   1
    23    13    23   1
    24    14    24   1
    25    14    25   1
    26    14    26   1
    27    15    27   1
    28    15    28   1
    29    16    29   1
    30    16    30   1
@<TRIPOS>SUBSTRUCTURE
     1  EAA      1

