@<TRIPOS>MOLECULE
2gss_ligand_029
    30    30
SMALL
GAST_HUCK
****
This file was generated by PARSER (from files_GN.cpp)

@<TRIPOS>ATOM
      1 C1         14.6536    7.7291   25.3424 C.ar        1 EAA       0.1139
      2 O2         15.6583    8.4712   24.7699 O.3         1 EAA      -0.2994
      3 C2         13.3962    8.2653   25.7229 C.ar        1 EAA       0.0881
      4 CL1        13.1723    9.9377   25.5034 Cl          1 EAA      -0.0767
      5 C3         12.3999    7.4254   26.2771 C.ar        1 EAA       0.0650
      6 CL2        10.8836    8.0716   26.6939 Cl          1 EAA      -0.0667
      7 C4         12.6747    6.0451   26.5045 C.ar        1 EAA       0.0377
      8 C5         13.9722    5.5534   26.2303 C.ar        1 EAA      -0.0512
      9 C6         14.9445    6.3812   25.6436 C.ar        1 EAA      -0.0258
     10 C7         11.7376    5.1844   27.0544 C.2         1 EAA       0.1527
     11 O1         11.7435    5.1490   28.2860 O.2         1 EAA      -0.3720
     12 C8         10.7842    4.4712   26.3411 C.2         1 EAA       0.0058
     13 C9         10.3649    4.8732   24.9830 C.3         1 EAA      -0.0152
     14 C10        10.7738    3.8621   23.8787 C.3         1 EAA      -0.0548
     15 C11        10.1658    3.4078   26.8975 C.2         1 EAA      -0.0907
     16 C12        15.3857    8.8279   23.3941 C.3         1 EAA       0.1241
     17 C13        16.5572    9.5282   22.8313 C.2         1 EAA       0.0656
     18 O          16.3825   10.4088   21.8134 O.co2       1 EAA      -0.5662
     19 OXT        17.7841    8.9796   22.9760 O.co2       1 EAA      -0.5662
     20 H1         14.2209    4.5911   26.4609 H           1 EAA       0.0644
     21 H2         15.8641    5.9971   25.4214 H           1 EAA       0.0559
     22 H3         10.7742    5.8447   24.6957 H           1 EAA       0.0432
     23 H4          9.2762    4.9918   24.9567 H           1 EAA       0.0432
     24 H5         10.4486    4.2314   22.9007 H           1 EAA       0.0253
     25 H6         10.3053    2.8925   24.0479 H           1 EAA       0.0253
     26 H7         11.8573    3.7356   23.8579 H           1 EAA       0.0253
     27 H8         10.4011    3.0794   27.7997 H           1 EAA       0.0460
     28 H9          9.4368    2.9249   26.4201 H           1 EAA       0.0460
     29 H10        14.5042    9.4971   23.3335 H           1 EAA       0.0788
     30 H11        15.1987    7.9346   22.7730 H           1 EAA       0.0788
@<TRIPOS>BOND
     1     1     2   1
     2     1     3  ar
     3     1     9  ar
     4     2    16   1
     5     3     4   1
     6     3     5  ar
     7     5     6   1
     8     5     7  ar
     9     7     8  ar
    10     7    10   1
    11     8     9  ar
    12    10    11   2
    13    10    12   1
    14    12    13   1
    15    12    15   2
    16    13    14   1
    17    16    17   1
    18    17    18  ar
    19    17    19  ar
    20     8    20   1
    21     9    21   1
    22    13    22   1
    23    13    23   1
    24    14    24   1
    25    14    25   1
    26    14    26   1
    27    15    27   1
    28    15    28   1
    29    16    29   1
    30    16    30   1
@<TRIPOS>SUBSTRUCTURE
     1  EAA      1

