@<TRIPOS>MOLECULE
2gss_ligand_025
    30    30
SMALL
GAST_HUCK
****
This file was generated by PARSER (from files_GN.cpp)

@<TRIPOS>ATOM
      1 C1          8.1564    6.8127   27.6819 C.ar        1 EAA       0.1139
      2 O2          8.0317    6.4324   28.9954 O.3         1 EAA      -0.2994
      3 C2          9.4064    6.9724   27.0420 C.ar        1 EAA       0.0881
      4 CL1        10.8080    6.4475   27.8564 Cl          1 EAA      -0.0767
      5 C3          9.4687    7.5522   25.7457 C.ar        1 EAA       0.0650
      6 CL2        10.9957    7.8778   25.0474 Cl          1 EAA      -0.0667
      7 C4          8.2651    7.9136   25.0719 C.ar        1 EAA       0.0377
      8 C5          7.0224    7.6211   25.6854 C.ar        1 EAA      -0.0512
      9 C6          6.9733    7.0886   26.9810 C.ar        1 EAA      -0.0258
     10 C7          8.2581    8.5506   23.8214 C.2         1 EAA       0.1527
     11 O1          8.8301    7.9196   22.9387 O.2         1 EAA      -0.3720
     12 C8          7.6655    9.7824   23.5264 C.2         1 EAA       0.0058
     13 C9          7.7212   10.2693   22.1289 C.3         1 EAA      -0.0152
     14 C10         7.0994   11.6268   21.7182 C.3         1 EAA      -0.0548
     15 C11         7.1027   10.5445   24.4941 C.2         1 EAA      -0.0907
     16 C12         8.2508    7.4699   29.9902 C.3         1 EAA       0.1241
     17 C13         7.5896    8.7703   29.7364 C.2         1 EAA       0.0656
     18 O           6.6194    9.2371   30.5549 O.co2       1 EAA      -0.5662
     19 OXT         8.0016    9.5547   28.7115 O.co2       1 EAA      -0.5662
     20 H1          6.1405    7.8352   25.2052 H           1 EAA       0.0644
     21 H2          6.0627    6.9445   27.4266 H           1 EAA       0.0559
     22 H3          7.2457    9.5112   21.4960 H           1 EAA       0.0432
     23 H4          8.7774   10.3285   21.8385 H           1 EAA       0.0432
     24 H5          7.2629   11.7912   20.6491 H           1 EAA       0.0253
     25 H6          7.5698   12.4484   22.2691 H           1 EAA       0.0253
     26 H7          6.0203   11.6277   21.9082 H           1 EAA       0.0253
     27 H8          7.0991   10.2731   25.4492 H           1 EAA       0.0460
     28 H9          6.6699   11.4049   24.2915 H           1 EAA       0.0460
     29 H10         9.3210    7.6509   30.1199 H           1 EAA       0.0788
     30 H11         7.8834    7.0719   30.9370 H           1 EAA       0.0788
@<TRIPOS>BOND
     1     1     2   1
     2     1     3  ar
     3     1     9  ar
     4     2    16   1
     5     3     4   1
     6     3     5  ar
     7     5     6   1
     8     5     7  ar
     9     7     8  ar
    10     7    10   1
    11     8     9  ar
    12    10    11   2
    13    10    12   1
    14    12    13   1
    15    12    15   2
    16    13    14   1
    17    16    17   1
    18    17    18  ar
    19    17    19  ar
    20     8    20   1
    21     9    21   1
    22    13    22   1
    23    13    23   1
    24    14    24   1
    25    14    25   1
    26    14    26   1
    27    15    27   1
    28    15    28   1
    29    16    29   1
    30    16    30   1
@<TRIPOS>SUBSTRUCTURE
     1  EAA      1

