@<TRIPOS>MOLECULE
2gss_ligand_035
    30    30
SMALL
GAST_HUCK
****
This file was generated by PARSER (from files_GN.cpp)

@<TRIPOS>ATOM
      1 C1         11.6971   10.5358   20.0199 C.ar        1 EAA       0.1139
      2 O2         10.3552   10.2647   20.1420 O.3         1 EAA      -0.2994
      3 C2         12.6284    9.9169   20.8824 C.ar        1 EAA       0.0881
      4 CL1        12.0517    8.8242   22.0597 Cl          1 EAA      -0.0767
      5 C3         14.0149   10.1844   20.7355 C.ar        1 EAA       0.0650
      6 CL2        15.0745    9.3185   21.7422 Cl          1 EAA      -0.0667
      7 C4         14.4890   11.0741   19.7216 C.ar        1 EAA       0.0377
      8 C5         13.5284   11.6116   18.8241 C.ar        1 EAA      -0.0512
      9 C6         12.1579   11.3535   18.9737 C.ar        1 EAA      -0.0258
     10 C7         15.8481   11.4365   19.5584 C.2         1 EAA       0.1527
     11 O1         16.2789   11.7122   18.4445 O.2         1 EAA      -0.3720
     12 C8         16.6888   11.7689   20.5933 C.2         1 EAA       0.0058
     13 C9         17.9496   11.0230   20.7634 C.3         1 EAA      -0.0152
     14 C10        18.3492   10.6683   22.2231 C.3         1 EAA      -0.0548
     15 C11        16.4624   12.8997   21.2832 C.2         1 EAA      -0.0907
     16 C12         9.5672   11.2097   20.8964 C.3         1 EAA       0.1241
     17 C13         9.9623   11.3763   22.3084 C.2         1 EAA       0.0656
     18 O          10.8698   12.3195   22.6463 O.co2       1 EAA      -0.5662
     19 OXT         9.3252   10.7137   23.2982 O.co2       1 EAA      -0.5662
     20 H1         13.8100   12.2429   18.0666 H           1 EAA       0.0644
     21 H2         11.4885   11.7614   18.3154 H           1 EAA       0.0559
     22 H3         18.7556   11.6216   20.3273 H           1 EAA       0.0432
     23 H4         17.9115   10.0823   20.2003 H           1 EAA       0.0432
     24 H5         19.2958   10.1309   22.2090 H           1 EAA       0.0253
     25 H6         17.6028   10.0379   22.7045 H           1 EAA       0.0253
     26 H7         18.4865   11.5627   22.8321 H           1 EAA       0.0253
     27 H8         15.6624   13.4585   21.1080 H           1 EAA       0.0460
     28 H9         17.0817   13.2135   21.9916 H           1 EAA       0.0460
     29 H10         8.5454   10.8293   20.8842 H           1 EAA       0.0788
     30 H11         9.5490   12.1801   20.3990 H           1 EAA       0.0788
@<TRIPOS>BOND
     1     1     2   1
     2     1     3  ar
     3     1     9  ar
     4     2    16   1
     5     3     4   1
     6     3     5  ar
     7     5     6   1
     8     5     7  ar
     9     7     8  ar
    10     7    10   1
    11     8     9  ar
    12    10    11   2
    13    10    12   1
    14    12    13   1
    15    12    15   2
    16    13    14   1
    17    16    17   1
    18    17    18  ar
    19    17    19  ar
    20     8    20   1
    21     9    21   1
    22    13    22   1
    23    13    23   1
    24    14    24   1
    25    14    25   1
    26    14    26   1
    27    15    27   1
    28    15    28   1
    29    16    29   1
    30    16    30   1
@<TRIPOS>SUBSTRUCTURE
     1  EAA      1

