@<TRIPOS>MOLECULE
2gss_ligand_026
    30    30
SMALL
GAST_HUCK
****
This file was generated by PARSER (from files_GN.cpp)

@<TRIPOS>ATOM
      1 C1          7.3873    4.7675   26.2725 C.ar        1 EAA       0.1139
      2 O2          6.4104    5.0315   27.2042 O.3         1 EAA      -0.2994
      3 C2          8.7593    4.9321   26.5767 C.ar        1 EAA       0.0881
      4 CL1         9.1800    5.4976   28.1259 Cl          1 EAA      -0.0767
      5 C3          9.7469    4.6368   25.6020 C.ar        1 EAA       0.0650
      6 CL2        11.4003    4.7660   26.0069 Cl          1 EAA      -0.0667
      7 C4          9.3592    4.2113   24.2995 C.ar        1 EAA       0.0377
      8 C5          7.9787    4.1256   23.9982 C.ar        1 EAA      -0.0512
      9 C6          7.0076    4.3850   24.9735 C.ar        1 EAA      -0.0258
     10 C7         10.2711    3.9529   23.2774 C.2         1 EAA       0.1527
     11 O1         10.9822    4.8787   22.9062 O.2         1 EAA      -0.3720
     12 C8         10.6025    2.6844   22.8846 C.2         1 EAA       0.0058
     13 C9         11.9441    2.1524   23.1653 C.3         1 EAA      -0.0152
     14 C10        12.8371    2.0531   21.9039 C.3         1 EAA      -0.0548
     15 C11         9.7320    1.9316   22.1858 C.2         1 EAA      -0.0907
     16 C12         5.7699    3.8769   27.7901 C.3         1 EAA       0.1241
     17 C13         6.6495    3.1153   28.6974 C.2         1 EAA       0.0656
     18 O           7.4885    2.1920   28.1818 O.co2       1 EAA      -0.5662
     19 OXT         6.9436    3.6221   29.9158 O.co2       1 EAA      -0.5662
     20 H1          7.6607    3.8940   23.0558 H           1 EAA       0.0644
     21 H2          6.0170    4.2963   24.7315 H           1 EAA       0.0559
     22 H3         11.8536    1.1610   23.6194 H           1 EAA       0.0432
     23 H4         12.4702    2.7763   23.8934 H           1 EAA       0.0432
     24 H5         13.8105    1.6369   22.1699 H           1 EAA       0.0253
     25 H6         12.9961    3.0432   21.4709 H           1 EAA       0.0253
     26 H7         12.3856    1.4089   21.1467 H           1 EAA       0.0253
     27 H8          8.8472    2.2809   21.9030 H           1 EAA       0.0460
     28 H9          9.9651    1.0110   21.9007 H           1 EAA       0.0460
     29 H10         5.3639    3.2074   27.0256 H           1 EAA       0.0788
     30 H11         4.9223    4.2423   28.3706 H           1 EAA       0.0788
@<TRIPOS>BOND
     1     1     2   1
     2     1     3  ar
     3     1     9  ar
     4     2    16   1
     5     3     4   1
     6     3     5  ar
     7     5     6   1
     8     5     7  ar
     9     7     8  ar
    10     7    10   1
    11     8     9  ar
    12    10    11   2
    13    10    12   1
    14    12    13   1
    15    12    15   2
    16    13    14   1
    17    16    17   1
    18    17    18  ar
    19    17    19  ar
    20     8    20   1
    21     9    21   1
    22    13    22   1
    23    13    23   1
    24    14    24   1
    25    14    25   1
    26    14    26   1
    27    15    27   1
    28    15    28   1
    29    16    29   1
    30    16    30   1
@<TRIPOS>SUBSTRUCTURE
     1  EAA      1

