@<TRIPOS>MOLECULE
2gss_ligand_040
    30    30
SMALL
GAST_HUCK
****
This file was generated by PARSER (from files_GN.cpp)

@<TRIPOS>ATOM
      1 C1         10.6444   11.5815   20.6998 C.ar        1 EAA       0.1139
      2 O2          9.4929   12.0847   20.1546 O.3         1 EAA      -0.2994
      3 C2         11.0490   11.9157   22.0091 C.ar        1 EAA       0.0881
      4 CL1        10.1393   13.0772   22.8579 Cl          1 EAA      -0.0767
      5 C3         12.1752   11.2695   22.5917 C.ar        1 EAA       0.0650
      6 CL2        12.6966   11.7538   24.1408 Cl          1 EAA      -0.0667
      7 C4         12.8831   10.2630   21.8708 C.ar        1 EAA       0.0377
      8 C5         12.4667    9.9719   20.5450 C.ar        1 EAA      -0.0512
      9 C6         11.3571   10.6112   19.9768 C.ar        1 EAA      -0.0258
     10 C7         13.9130    9.4839   22.4289 C.2         1 EAA       0.1527
     11 O1         14.8707    9.2113   21.7062 O.2         1 EAA      -0.3720
     12 C8         13.8148    8.7914   23.6183 C.2         1 EAA       0.0058
     13 C9         14.9983    8.5990   24.4765 C.3         1 EAA      -0.0152
     14 C10        14.9405    9.4178   25.7860 C.3         1 EAA      -0.0548
     15 C11        12.6426    8.2374   23.9981 C.2         1 EAA      -0.0907
     16 C12         9.6656   13.2048   19.2602 C.3         1 EAA       0.1241
     17 C13         8.3574   13.6110   18.7205 C.2         1 EAA       0.0656
     18 O           8.2735   14.6594   17.8642 O.co2       1 EAA      -0.5662
     19 OXT         7.2247   12.9284   19.0080 O.co2       1 EAA      -0.5662
     20 H1         12.9378    9.2512   19.9949 H           1 EAA       0.0644
     21 H2         11.0530   10.3441   19.0367 H           1 EAA       0.0559
     22 H3         15.9188    8.8906   23.9625 H           1 EAA       0.0432
     23 H4         15.1076    7.5384   24.7224 H           1 EAA       0.0432
     24 H5         14.9845   10.4854   25.5636 H           1 EAA       0.0253
     25 H6         15.7923    9.1652   26.4181 H           1 EAA       0.0253
     26 H7         14.0233    9.2090   26.3402 H           1 EAA       0.0253
     27 H8         11.8208    8.3252   23.4475 H           1 EAA       0.0460
     28 H9         12.5707    7.7091   24.8342 H           1 EAA       0.0460
     29 H10        10.3170   12.9375   18.4211 H           1 EAA       0.0788
     30 H11        10.0985   14.0591   19.7943 H           1 EAA       0.0788
@<TRIPOS>BOND
     1     1     2   1
     2     1     3  ar
     3     1     9  ar
     4     2    16   1
     5     3     4   1
     6     3     5  ar
     7     5     6   1
     8     5     7  ar
     9     7     8  ar
    10     7    10   1
    11     8     9  ar
    12    10    11   2
    13    10    12   1
    14    12    13   1
    15    12    15   2
    16    13    14   1
    17    16    17   1
    18    17    18  ar
    19    17    19  ar
    20     8    20   1
    21     9    21   1
    22    13    22   1
    23    13    23   1
    24    14    24   1
    25    14    25   1
    26    14    26   1
    27    15    27   1
    28    15    28   1
    29    16    29   1
    30    16    30   1
@<TRIPOS>SUBSTRUCTURE
     1  EAA      1

