@<TRIPOS>MOLECULE
2gss_ligand_022
    30    30
SMALL
GAST_HUCK
****
This file was generated by PARSER (from files_GN.cpp)

@<TRIPOS>ATOM
      1 C1         14.9418    9.3136   22.9767 C.ar        1 EAA       0.1139
      2 O2         15.3732    9.2146   21.6679 O.3         1 EAA      -0.2994
      3 C2         13.5686    9.1788   23.2727 C.ar        1 EAA       0.0881
      4 CL1        12.4806    8.9937   21.9807 Cl          1 EAA      -0.0767
      5 C3         13.1144    9.2090   24.6225 C.ar        1 EAA       0.0650
      6 CL2        11.4517    8.9979   24.9121 Cl          1 EAA      -0.0667
      7 C4         14.0424    9.4303   25.6870 C.ar        1 EAA       0.0377
      8 C5         15.4168    9.5396   25.3494 C.ar        1 EAA      -0.0512
      9 C6         15.8582    9.4508   24.0271 C.ar        1 EAA      -0.0258
     10 C7         13.6812    9.5417   27.0448 C.2         1 EAA       0.1527
     11 O1         12.7320    8.9072   27.4914 O.2         1 EAA      -0.3720
     12 C8         14.3475   10.2939   27.9660 C.2         1 EAA       0.0058
     13 C9         14.0662   11.7370   28.0366 C.3         1 EAA      -0.0152
     14 C10        14.7668   12.5589   26.9302 C.3         1 EAA      -0.0548
     15 C11        15.2311    9.7028   28.7965 C.2         1 EAA      -0.0907
     16 C12        15.9690   10.3947   21.0739 C.3         1 EAA       0.1241
     17 C13        17.3909   10.5284   21.4043 C.2         1 EAA       0.0656
     18 O          18.0715    9.5117   21.9783 O.co2       1 EAA      -0.5662
     19 OXT        18.0779   11.6483   21.0584 O.co2       1 EAA      -0.5662
     20 H1         16.1299    9.6682   26.0796 H           1 EAA       0.0644
     21 H2         16.8660    9.5156   23.8327 H           1 EAA       0.0559
     22 H3         14.3761   12.1599   29.0023 H           1 EAA       0.0432
     23 H4         12.9945   11.9242   27.9471 H           1 EAA       0.0432
     24 H5         14.4970   13.6120   27.0501 H           1 EAA       0.0253
     25 H6         14.4485   12.2480   25.9286 H           1 EAA       0.0253
     26 H7         15.8468   12.4598   27.0175 H           1 EAA       0.0253
     27 H8         15.4266    8.7363   28.7297 H           1 EAA       0.0460
     28 H9         15.7442   10.2242   29.4648 H           1 EAA       0.0460
     29 H10        15.4250   11.3075   21.3547 H           1 EAA       0.0788
     30 H11        15.8970   10.3042   19.9900 H           1 EAA       0.0788
@<TRIPOS>BOND
     1     1     2   1
     2     1     3  ar
     3     1     9  ar
     4     2    16   1
     5     3     4   1
     6     3     5  ar
     7     5     6   1
     8     5     7  ar
     9     7     8  ar
    10     7    10   1
    11     8     9  ar
    12    10    11   2
    13    10    12   1
    14    12    13   1
    15    12    15   2
    16    13    14   1
    17    16    17   1
    18    17    18  ar
    19    17    19  ar
    20     8    20   1
    21     9    21   1
    22    13    22   1
    23    13    23   1
    24    14    24   1
    25    14    25   1
    26    14    26   1
    27    15    27   1
    28    15    28   1
    29    16    29   1
    30    16    30   1
@<TRIPOS>SUBSTRUCTURE
     1  EAA      1

