@<TRIPOS>MOLECULE
2gss_ligand_012
    30    30
SMALL
GAST_HUCK
****
This file was generated by PARSER (from files_GN.cpp)

@<TRIPOS>ATOM
      1 C1         11.1423    6.3609   25.7465 C.ar        1 EAA       0.1139
      2 O2         10.1948    5.4145   26.0141 O.3         1 EAA      -0.2994
      3 C2         10.7943    7.5105   24.9974 C.ar        1 EAA       0.0881
      4 CL1         9.1591    7.7252   24.5687 Cl          1 EAA      -0.0767
      5 C3         11.8011    8.4353   24.6068 C.ar        1 EAA       0.0650
      6 CL2        11.3745    9.6861   23.5313 Cl          1 EAA      -0.0667
      7 C4         13.1434    8.2501   25.0287 C.ar        1 EAA       0.0377
      8 C5         13.4509    7.1467   25.8588 C.ar        1 EAA      -0.0512
      9 C6         12.4633    6.2086   26.2052 C.ar        1 EAA      -0.0258
     10 C7         14.1702    9.1130   24.6566 C.2         1 EAA       0.1527
     11 O1         15.0430    8.6891   23.9026 O.2         1 EAA      -0.3720
     12 C8         14.4588   10.2198   25.3917 C.2         1 EAA       0.0058
     13 C9         15.3204   10.1124   26.5834 C.3         1 EAA      -0.0152
     14 C10        14.5217   10.1793   27.9040 C.3         1 EAA      -0.0548
     15 C11        14.0159   11.4222   24.9929 C.2         1 EAA      -0.0907
     16 C12        10.1661    4.2769   25.1161 C.3         1 EAA       0.1241
     17 C13         9.8942    4.5789   23.6913 C.2         1 EAA       0.0656
     18 O           8.6606    4.3752   23.1740 O.co2       1 EAA      -0.5662
     19 OXT        10.7742    5.3179   22.9751 O.co2       1 EAA      -0.5662
     20 H1         14.4051    6.9894   26.1936 H           1 EAA       0.0644
     21 H2         12.7106    5.4016   26.7817 H           1 EAA       0.0559
     22 H3         16.0647   10.9101   26.5784 H           1 EAA       0.0432
     23 H4         15.8742    9.1679   26.5814 H           1 EAA       0.0432
     24 H5         15.2003   10.0696   28.7548 H           1 EAA       0.0253
     25 H6         13.7860    9.3744   27.9472 H           1 EAA       0.0253
     26 H7         14.0030   11.1392   27.9966 H           1 EAA       0.0253
     27 H8         13.4912   11.5357   24.1610 H           1 EAA       0.0460
     28 H9         14.2249   12.2411   25.5134 H           1 EAA       0.0460
     29 H10         9.3733    3.6170   25.4805 H           1 EAA       0.0788
     30 H11        11.1019    3.7175   25.1789 H           1 EAA       0.0788
@<TRIPOS>BOND
     1     1     2   1
     2     1     3  ar
     3     1     9  ar
     4     2    16   1
     5     3     4   1
     6     3     5  ar
     7     5     6   1
     8     5     7  ar
     9     7     8  ar
    10     7    10   1
    11     8     9  ar
    12    10    11   2
    13    10    12   1
    14    12    13   1
    15    12    15   2
    16    13    14   1
    17    16    17   1
    18    17    18  ar
    19    17    19  ar
    20     8    20   1
    21     9    21   1
    22    13    22   1
    23    13    23   1
    24    14    24   1
    25    14    25   1
    26    14    26   1
    27    15    27   1
    28    15    28   1
    29    16    29   1
    30    16    30   1
@<TRIPOS>SUBSTRUCTURE
     1  EAA      1

