@<TRIPOS>MOLECULE
2gss_ligand_000
    30    30
SMALL
GAST_HUCK
****
This file was generated by PARSER (from files_GN.cpp)

@<TRIPOS>ATOM
      1 C1         10.8653    7.0400   24.5188 C.ar        1 EAA       0.1139
      2 O2          9.6040    6.5891   24.2163 O.3         1 EAA      -0.2994
      3 C2         11.3517    8.2827   24.0429 C.ar        1 EAA       0.0881
      4 CL1        10.3069    9.3026   23.1661 Cl          1 EAA      -0.0767
      5 C3         12.6823    8.6806   24.3341 C.ar        1 EAA       0.0650
      6 CL2        13.2865   10.1359   23.6809 Cl          1 EAA      -0.0667
      7 C4         13.4894    7.8801   25.1896 C.ar        1 EAA       0.0377
      8 C5         12.9563    6.6891   25.7298 C.ar        1 EAA      -0.0512
      9 C6         11.6670    6.2603   25.3758 C.ar        1 EAA      -0.0258
     10 C7         14.7667    8.2593   25.5757 C.2         1 EAA       0.1527
     11 O1         15.6405    8.2027   24.7193 O.2         1 EAA      -0.3720
     12 C8         15.0476    8.7912   26.8095 C.2         1 EAA       0.0058
     13 C9         14.1753    9.8128   27.4134 C.3         1 EAA      -0.0152
     14 C10        14.6568   11.2509   27.1086 C.3         1 EAA      -0.0548
     15 C11        16.1731    8.4305   27.4582 C.2         1 EAA      -0.0907
     16 C12         9.5308    5.7100   23.0704 C.3         1 EAA       0.1241
     17 C13         9.5811    6.4244   21.7844 C.2         1 EAA       0.0656
     18 O          10.7813    6.7227   21.2393 O.co2       1 EAA      -0.5662
     19 OXT         8.5137    7.1598   21.3982 O.co2       1 EAA      -0.5662
     20 H1         13.5118    6.1043   26.3639 H           1 EAA       0.0644
     21 H2         11.3076    5.3766   25.7482 H           1 EAA       0.0559
     22 H3         14.1215    9.6763   28.4997 H           1 EAA       0.0432
     23 H4         13.1461    9.7301   27.0563 H           1 EAA       0.0432
     24 H5         13.9806   11.9710   27.5742 H           1 EAA       0.0253
     25 H6         14.6646   11.4341   26.0326 H           1 EAA       0.0253
     26 H7         15.6638   11.4115   27.4985 H           1 EAA       0.0253
     27 H8         16.8185    7.7835   27.0676 H           1 EAA       0.0460
     28 H9         16.3868    8.7953   28.3588 H           1 EAA       0.0460
     29 H10         8.5698    5.1942   23.1208 H           1 EAA       0.0788
     30 H11        10.3099    4.9411   23.0947 H           1 EAA       0.0788
@<TRIPOS>BOND
     1     1     2   1
     2     1     3  ar
     3     1     9  ar
     4     2    16   1
     5     3     4   1
     6     3     5  ar
     7     5     6   1
     8     5     7  ar
     9     7     8  ar
    10     7    10   1
    11     8     9  ar
    12    10    11   2
    13    10    12   1
    14    12    13   1
    15    12    15   2
    16    13    14   1
    17    16    17   1
    18    17    18  ar
    19    17    19  ar
    20     8    20   1
    21     9    21   1
    22    13    22   1
    23    13    23   1
    24    14    24   1
    25    14    25   1
    26    14    26   1
    27    15    27   1
    28    15    28   1
    29    16    29   1
    30    16    30   1
@<TRIPOS>SUBSTRUCTURE
     1  EAA      1

