@<TRIPOS>MOLECULE
2gss_ligand_021
    30    30
SMALL
GAST_HUCK
****
This file was generated by PARSER (from files_GN.cpp)

@<TRIPOS>ATOM
      1 C1         11.1016    0.9882   23.2600 C.ar        1 EAA       0.1139
      2 O2         11.1820   -0.1773   22.5211 O.3         1 EAA      -0.2994
      3 C2         10.5823    0.9245   24.5754 C.ar        1 EAA       0.0881
      4 CL1        10.0378   -0.5809   25.1487 Cl          1 EAA      -0.0767
      5 C3         10.5199    2.0898   25.3881 C.ar        1 EAA       0.0650
      6 CL2         9.8788    1.9697   26.9660 Cl          1 EAA      -0.0667
      7 C4         10.9523    3.3451   24.8677 C.ar        1 EAA       0.0377
      8 C5         11.4576    3.3899   23.5476 C.ar        1 EAA      -0.0512
      9 C6         11.5637    2.2263   22.7745 C.ar        1 EAA      -0.0258
     10 C7         10.9278    4.5252   25.6219 C.2         1 EAA       0.1527
     11 O1         11.5876    4.5977   26.6496 O.2         1 EAA      -0.3720
     12 C8         10.2470    5.6472   25.2434 C.2         1 EAA       0.0058
     13 C9          8.7953    5.7915   25.4323 C.3         1 EAA      -0.0152
     14 C10         8.0196    4.6393   26.1184 C.3         1 EAA      -0.0548
     15 C11        10.9304    6.6604   24.6733 C.2         1 EAA      -0.0907
     16 C12        10.9972   -0.1605   21.0869 C.3         1 EAA       0.1241
     17 C13        12.2895    0.0453   20.4167 C.2         1 EAA       0.0656
     18 O          12.6708    1.2734   20.0102 O.co2       1 EAA      -0.5662
     19 OXT        13.1066   -1.0036   20.1569 O.co2       1 EAA      -0.5662
     20 H1         11.7983    4.2651   23.1412 H           1 EAA       0.0644
     21 H2         11.9758    2.3024   21.8473 H           1 EAA       0.0559
     22 H3          8.3352    5.9521   24.4512 H           1 EAA       0.0432
     23 H4          8.6190    6.6885   26.0339 H           1 EAA       0.0432
     24 H5          6.9697    4.9260   26.2335 H           1 EAA       0.0253
     25 H6          8.4371    4.4405   27.1086 H           1 EAA       0.0253
     26 H7          8.0658    3.7321   25.5133 H           1 EAA       0.0253
     27 H8         11.9144    6.6080   24.5192 H           1 EAA       0.0460
     28 H9         10.4626    7.4920   24.3864 H           1 EAA       0.0460
     29 H10        10.2615    0.5862   20.7692 H           1 EAA       0.0788
     30 H11        10.6229   -1.1379   20.7812 H           1 EAA       0.0788
@<TRIPOS>BOND
     1     1     2   1
     2     1     3  ar
     3     1     9  ar
     4     2    16   1
     5     3     4   1
     6     3     5  ar
     7     5     6   1
     8     5     7  ar
     9     7     8  ar
    10     7    10   1
    11     8     9  ar
    12    10    11   2
    13    10    12   1
    14    12    13   1
    15    12    15   2
    16    13    14   1
    17    16    17   1
    18    17    18  ar
    19    17    19  ar
    20     8    20   1
    21     9    21   1
    22    13    22   1
    23    13    23   1
    24    14    24   1
    25    14    25   1
    26    14    26   1
    27    15    27   1
    28    15    28   1
    29    16    29   1
    30    16    30   1
@<TRIPOS>SUBSTRUCTURE
     1  EAA      1

