@<TRIPOS>MOLECULE
2gss_ligand_017
    30    30
SMALL
GAST_HUCK
****
This file was generated by PARSER (from files_GN.cpp)

@<TRIPOS>ATOM
      1 C1         10.5243    2.6171   23.9921 C.ar        1 EAA       0.1139
      2 O2         11.6373    2.0113   23.4679 O.3         1 EAA      -0.2994
      3 C2          9.7637    2.0591   25.0445 C.ar        1 EAA       0.0881
      4 CL1        10.2494    0.5665   25.6997 Cl          1 EAA      -0.0767
      5 C3          8.6185    2.7470   25.5333 C.ar        1 EAA       0.0650
      6 CL2         7.7068    2.0900   26.8139 Cl          1 EAA      -0.0667
      7 C4          8.2319    3.9871   24.9436 C.ar        1 EAA       0.0377
      8 C5          9.0484    4.5562   23.9361 C.ar        1 EAA      -0.0512
      9 C6         10.1896    3.8837   23.4756 C.ar        1 EAA      -0.0258
     10 C7          7.1168    4.7035   25.3537 C.2         1 EAA       0.1527
     11 O1          7.1498    5.2234   26.4576 O.2         1 EAA      -0.3720
     12 C8          5.9412    4.6859   24.6534 C.2         1 EAA       0.0058
     13 C9          5.8763    5.2910   23.3224 C.3         1 EAA      -0.0152
     14 C10         6.0725    6.8263   23.3339 C.3         1 EAA      -0.0548
     15 C11         4.8503    4.1131   25.2015 C.2         1 EAA      -0.0907
     16 C12        11.3584    1.1916   22.3084 C.3         1 EAA       0.1241
     17 C13        12.5150    1.1775   21.3956 C.2         1 EAA       0.0656
     18 O          12.3500    0.7803   20.1099 O.co2       1 EAA      -0.5662
     19 OXT        13.6725    1.7902   21.7206 O.co2       1 EAA      -0.5662
     20 H1          8.8274    5.4653   23.5288 H           1 EAA       0.0644
     21 H2         10.7749    4.3085   22.7563 H           1 EAA       0.0559
     22 H3          4.9130    5.1002   22.8398 H           1 EAA       0.0432
     23 H4          6.6371    4.8382   22.6826 H           1 EAA       0.0432
     24 H5          6.0256    7.2139   22.3136 H           1 EAA       0.0253
     25 H6          7.0420    7.0881   23.7561 H           1 EAA       0.0253
     26 H7          5.2862    7.3032   23.9217 H           1 EAA       0.0253
     27 H8          4.8767    3.6879   26.0987 H           1 EAA       0.0460
     28 H9          3.9833    4.1024   24.7200 H           1 EAA       0.0460
     29 H10        10.5068    1.5727   21.7351 H           1 EAA       0.0788
     30 H11        11.1355    0.1707   22.6353 H           1 EAA       0.0788
@<TRIPOS>BOND
     1     1     2   1
     2     1     3  ar
     3     1     9  ar
     4     2    16   1
     5     3     4   1
     6     3     5  ar
     7     5     6   1
     8     5     7  ar
     9     7     8  ar
    10     7    10   1
    11     8     9  ar
    12    10    11   2
    13    10    12   1
    14    12    13   1
    15    12    15   2
    16    13    14   1
    17    16    17   1
    18    17    18  ar
    19    17    19  ar
    20     8    20   1
    21     9    21   1
    22    13    22   1
    23    13    23   1
    24    14    24   1
    25    14    25   1
    26    14    26   1
    27    15    27   1
    28    15    28   1
    29    16    29   1
    30    16    30   1
@<TRIPOS>SUBSTRUCTURE
     1  EAA      1

