@<TRIPOS>MOLECULE
2gss_ligand_031
    30    30
SMALL
GAST_HUCK
****
This file was generated by PARSER (from files_GN.cpp)

@<TRIPOS>ATOM
      1 C1         10.5778    1.9899   24.2919 C.ar        1 EAA       0.1139
      2 O2         11.4693    1.5666   23.3366 O.3         1 EAA      -0.2994
      3 C2         10.2867    3.3574   24.5010 C.ar        1 EAA       0.0881
      4 CL1        11.0900    4.4973   23.5357 Cl          1 EAA      -0.0767
      5 C3          9.3848    3.7503   25.5282 C.ar        1 EAA       0.0650
      6 CL2         9.0108    5.4011   25.7315 Cl          1 EAA      -0.0667
      7 C4          8.7887    2.7664   26.3618 C.ar        1 EAA       0.0377
      8 C5          9.1223    1.4092   26.1660 C.ar        1 EAA      -0.0512
      9 C6         10.0115    1.0253   25.1411 C.ar        1 EAA      -0.0258
     10 C7          7.9421    3.0834   27.4227 C.2         1 EAA       0.1527
     11 O1          8.4493    3.4459   28.4802 O.2         1 EAA      -0.3720
     12 C8          6.5869    3.1790   27.2917 C.2         1 EAA       0.0058
     13 C9          6.0329    4.2565   26.4594 C.3         1 EAA      -0.0152
     14 C10         4.4797    4.3815   26.3888 C.3         1 EAA      -0.0548
     15 C11         5.8221    2.2486   27.8936 C.2         1 EAA      -0.0907
     16 C12        11.0052    0.5033   22.4738 C.3         1 EAA       0.1241
     17 C13        11.4138    0.7190   21.0780 C.2         1 EAA       0.0656
     18 O          10.5189    0.5918   20.0729 O.co2       1 EAA      -0.5662
     19 OXT        12.7141    0.9043   20.7618 O.co2       1 EAA      -0.5662
     20 H1          8.7436    0.6798   26.7706 H           1 EAA       0.0644
     21 H2         10.2480    0.0395   25.0252 H           1 EAA       0.0559
     22 H3          6.4061    4.1256   25.4462 H           1 EAA       0.0432
     23 H4          6.3940    5.2343   26.7972 H           1 EAA       0.0432
     24 H5          4.1969    5.2598   25.8150 H           1 EAA       0.0253
     25 H6          4.0727    4.4654   27.3964 H           1 EAA       0.0253
     26 H7          4.0363    3.5156   25.8939 H           1 EAA       0.0253
     27 H8          6.2047    1.5482   28.4798 H           1 EAA       0.0460
     28 H9          4.8362    2.2517   27.8158 H           1 EAA       0.0460
     29 H10         9.9228    0.3538   22.5387 H           1 EAA       0.0788
     30 H11        11.4757   -0.4209   22.8110 H           1 EAA       0.0788
@<TRIPOS>BOND
     1     1     2   1
     2     1     3  ar
     3     1     9  ar
     4     2    16   1
     5     3     4   1
     6     3     5  ar
     7     5     6   1
     8     5     7  ar
     9     7     8  ar
    10     7    10   1
    11     8     9  ar
    12    10    11   2
    13    10    12   1
    14    12    13   1
    15    12    15   2
    16    13    14   1
    17    16    17   1
    18    17    18  ar
    19    17    19  ar
    20     8    20   1
    21     9    21   1
    22    13    22   1
    23    13    23   1
    24    14    24   1
    25    14    25   1
    26    14    26   1
    27    15    27   1
    28    15    28   1
    29    16    29   1
    30    16    30   1
@<TRIPOS>SUBSTRUCTURE
     1  EAA      1

