@<TRIPOS>MOLECULE
2gss_ligand_006
    30    30
SMALL
GAST_HUCK
****
This file was generated by PARSER (from files_GN.cpp)

@<TRIPOS>ATOM
      1 C1          5.9596    6.1800   29.7002 C.ar        1 EAA       0.1139
      2 O2          6.9192    6.4645   28.7610 O.3         1 EAA      -0.2994
      3 C2          5.8151    4.9080   30.2958 C.ar        1 EAA       0.0881
      4 CL1         6.8145    3.6425   29.7594 Cl          1 EAA      -0.0767
      5 C3          4.8268    4.6951   31.2983 C.ar        1 EAA       0.0650
      6 CL2         4.6391    3.1470   31.9892 Cl          1 EAA      -0.0667
      7 C4          3.9865    5.7664   31.6995 C.ar        1 EAA       0.0377
      8 C5          4.0989    7.0133   31.0358 C.ar        1 EAA      -0.0512
      9 C6          5.0613    7.2115   30.0404 C.ar        1 EAA      -0.0258
     10 C7          3.0372    5.6393   32.7049 C.2         1 EAA       0.1527
     11 O1          1.9688    5.0836   32.4574 O.2         1 EAA      -0.3720
     12 C8          3.2783    6.0599   33.9759 C.2         1 EAA       0.0058
     13 C9          2.9767    7.4480   34.3472 C.3         1 EAA      -0.0152
     14 C10         1.5049    7.8723   34.1142 C.3         1 EAA      -0.0548
     15 C11         3.8524    5.2103   34.8490 C.2         1 EAA      -0.0907
     16 C12         8.2656    6.6404   29.2666 C.3         1 EAA       0.1241
     17 C13         8.8684    7.9114   28.8463 C.2         1 EAA       0.0656
     18 O          10.1232    8.2097   29.2560 O.co2       1 EAA      -0.5662
     19 OXT         8.1791    8.8257   28.1271 O.co2       1 EAA      -0.5662
     20 H1          3.4673    7.7863   31.2682 H           1 EAA       0.0644
     21 H2          5.1135    8.1139   29.5621 H           1 EAA       0.0559
     22 H3          3.6258    8.1115   33.7744 H           1 EAA       0.0432
     23 H4          3.1976    7.6327   35.4022 H           1 EAA       0.0432
     24 H5          1.3426    8.8724   34.5217 H           1 EAA       0.0253
     25 H6          0.8189    7.1837   34.6081 H           1 EAA       0.0253
     26 H7          1.2751    7.8978   33.0476 H           1 EAA       0.0253
     27 H8          4.0602    4.2704   34.6154 H           1 EAA       0.0460
     28 H9          4.1086    5.5101   35.7565 H           1 EAA       0.0460
     29 H10         8.8770    5.8320   28.8573 H           1 EAA       0.0788
     30 H11         8.3310    6.5893   30.3603 H           1 EAA       0.0788
@<TRIPOS>BOND
     1     1     2   1
     2     1     3  ar
     3     1     9  ar
     4     2    16   1
     5     3     4   1
     6     3     5  ar
     7     5     6   1
     8     5     7  ar
     9     7     8  ar
    10     7    10   1
    11     8     9  ar
    12    10    11   2
    13    10    12   1
    14    12    13   1
    15    12    15   2
    16    13    14   1
    17    16    17   1
    18    17    18  ar
    19    17    19  ar
    20     8    20   1
    21     9    21   1
    22    13    22   1
    23    13    23   1
    24    14    24   1
    25    14    25   1
    26    14    26   1
    27    15    27   1
    28    15    28   1
    29    16    29   1
    30    16    30   1
@<TRIPOS>SUBSTRUCTURE
     1  EAA      1

