@<TRIPOS>MOLECULE
2gss_ligand_013
    30    30
SMALL
GAST_HUCK
****
This file was generated by PARSER (from files_GN.cpp)

@<TRIPOS>ATOM
      1 C1         10.6956    7.8453   24.6369 C.ar        1 EAA       0.1139
      2 O2          9.4901    7.2629   24.3498 O.3         1 EAA      -0.2994
      3 C2         11.5947    8.2014   23.6070 C.ar        1 EAA       0.0881
      4 CL1        11.0988    7.9728   21.9980 Cl          1 EAA      -0.0767
      5 C3         12.8697    8.7468   23.9264 C.ar        1 EAA       0.0650
      6 CL2        13.9218    9.2128   22.6667 Cl          1 EAA      -0.0667
      7 C4         13.2281    8.9584   25.2924 C.ar        1 EAA       0.0377
      8 C5         12.3029    8.6015   26.3039 C.ar        1 EAA      -0.0512
      9 C6         11.0627    8.0330   25.9810 C.ar        1 EAA      -0.0258
     10 C7         14.4421    9.5306   25.6838 C.2         1 EAA       0.1527
     11 O1         15.4956    8.9725   25.3798 O.2         1 EAA      -0.3720
     12 C8         14.5135   10.7690   26.2595 C.2         1 EAA       0.0058
     13 C9         15.1712   10.9818   27.5563 C.3         1 EAA      -0.0152
     14 C10        15.1912    9.8021   28.5595 C.3         1 EAA      -0.0548
     15 C11        14.1175   11.8356   25.5383 C.2         1 EAA      -0.0907
     16 C12         8.3883    8.1898   24.3037 C.3         1 EAA       0.1241
     17 C13         7.2138    7.4958   23.7614 C.2         1 EAA       0.0656
     18 O           6.0004    8.0733   23.9011 O.co2       1 EAA      -0.5662
     19 OXT         7.3748    6.6583   22.7115 O.co2       1 EAA      -0.5662
     20 H1         12.5250    8.7402   27.2944 H           1 EAA       0.0644
     21 H2         10.4216    7.7570   26.7292 H           1 EAA       0.0559
     22 H3         14.6911   11.8114   28.0828 H           1 EAA       0.0432
     23 H4         16.2002   11.2841   27.3625 H           1 EAA       0.0432
     24 H5         15.7110   10.1166   29.4675 H           1 EAA       0.0253
     25 H6         15.7126    8.9385   28.1434 H           1 EAA       0.0253
     26 H7         14.1737    9.5154   28.8264 H           1 EAA       0.0253
     27 H8         13.7308   11.7364   24.6272 H           1 EAA       0.0460
     28 H9         14.2128   12.7576   25.8904 H           1 EAA       0.0460
     29 H10         8.6010    9.0510   23.6613 H           1 EAA       0.0788
     30 H11         8.1628    8.5438   25.3135 H           1 EAA       0.0788
@<TRIPOS>BOND
     1     1     2   1
     2     1     3  ar
     3     1     9  ar
     4     2    16   1
     5     3     4   1
     6     3     5  ar
     7     5     6   1
     8     5     7  ar
     9     7     8  ar
    10     7    10   1
    11     8     9  ar
    12    10    11   2
    13    10    12   1
    14    12    13   1
    15    12    15   2
    16    13    14   1
    17    16    17   1
    18    17    18  ar
    19    17    19  ar
    20     8    20   1
    21     9    21   1
    22    13    22   1
    23    13    23   1
    24    14    24   1
    25    14    25   1
    26    14    26   1
    27    15    27   1
    28    15    28   1
    29    16    29   1
    30    16    30   1
@<TRIPOS>SUBSTRUCTURE
     1  EAA      1

