@<TRIPOS>MOLECULE
2gss_ligand_020
    30    30
SMALL
GAST_HUCK
****
This file was generated by PARSER (from files_GN.cpp)

@<TRIPOS>ATOM
      1 C1         10.1449    3.0120   24.2807 C.ar        1 EAA       0.1139
      2 O2         10.4943    2.4400   23.0849 O.3         1 EAA      -0.2994
      3 C2          9.9649    2.2202   25.4391 C.ar        1 EAA       0.0881
      4 CL1        10.2213    0.5427   25.3071 Cl          1 EAA      -0.0767
      5 C3          9.5906    2.8310   26.6659 C.ar        1 EAA       0.0650
      6 CL2         9.4453    1.8595   28.0638 Cl          1 EAA      -0.0667
      7 C4          9.3954    4.2395   26.7275 C.ar        1 EAA       0.0377
      8 C5          9.5894    5.0096   25.5569 C.ar        1 EAA      -0.0512
      9 C6          9.9485    4.4037   24.3471 C.ar        1 EAA      -0.0258
     10 C7          9.0124    4.9016   27.9027 C.2         1 EAA       0.1527
     11 O1          7.9426    4.6194   28.4099 O.2         1 EAA      -0.3720
     12 C8          9.8571    5.7151   28.6136 C.2         1 EAA       0.0058
     13 C9          9.3393    6.8732   29.3461 C.3         1 EAA      -0.0152
     14 C10         9.4989    8.2081   28.5867 C.3         1 EAA      -0.0548
     15 C11        11.1601    5.3751   28.7405 C.2         1 EAA      -0.0907
     16 C12        11.8904    2.5864   22.7575 C.3         1 EAA       0.1241
     17 C13        12.2506    1.7539   21.6027 C.2         1 EAA       0.0656
     18 O          13.5547    1.5621   21.3090 O.co2       1 EAA      -0.5662
     19 OXT        11.3458    0.9519   21.0039 O.co2       1 EAA      -0.5662
     20 H1          9.4426    6.0245   25.5706 H           1 EAA       0.0644
     21 H2         10.0607    4.9794   23.5125 H           1 EAA       0.0559
     22 H3          9.8570    6.9517   30.3080 H           1 EAA       0.0432
     23 H4          8.2764    6.7440   29.5721 H           1 EAA       0.0432
     24 H5          9.1197    9.0180   29.2041 H           1 EAA       0.0253
     25 H6          8.9362    8.1808   27.6527 H           1 EAA       0.0253
     26 H7         10.5479    8.4063   28.3649 H           1 EAA       0.0253
     27 H8         11.5391    4.5671   28.3008 H           1 EAA       0.0460
     28 H9         11.7766    5.9247   29.2998 H           1 EAA       0.0460
     29 H10        12.5286    2.2989   23.6048 H           1 EAA       0.0788
     30 H11        12.1044    3.6183   22.5004 H           1 EAA       0.0788
@<TRIPOS>BOND
     1     1     2   1
     2     1     3  ar
     3     1     9  ar
     4     2    16   1
     5     3     4   1
     6     3     5  ar
     7     5     6   1
     8     5     7  ar
     9     7     8  ar
    10     7    10   1
    11     8     9  ar
    12    10    11   2
    13    10    12   1
    14    12    13   1
    15    12    15   2
    16    13    14   1
    17    16    17   1
    18    17    18  ar
    19    17    19  ar
    20     8    20   1
    21     9    21   1
    22    13    22   1
    23    13    23   1
    24    14    24   1
    25    14    25   1
    26    14    26   1
    27    15    27   1
    28    15    28   1
    29    16    29   1
    30    16    30   1
@<TRIPOS>SUBSTRUCTURE
     1  EAA      1

