@<TRIPOS>MOLECULE
2gss_ligand_001
    30    30
SMALL
GAST_HUCK
****
This file was generated by PARSER (from files_GN.cpp)

@<TRIPOS>ATOM
      1 C1         10.7525    7.2791   24.4503 C.ar        1 EAA       0.1139
      2 O2          9.5121    6.7372   24.2137 O.3         1 EAA      -0.2994
      3 C2         11.7858    6.5951   25.1333 C.ar        1 EAA       0.0881
      4 CL1        11.4589    5.0128   25.6889 Cl          1 EAA      -0.0767
      5 C3         13.0392    7.2251   25.3486 C.ar        1 EAA       0.0650
      6 CL2        14.2527    6.3729   26.1927 Cl          1 EAA      -0.0667
      7 C4         13.2684    8.5559   24.8874 C.ar        1 EAA       0.0377
      8 C5         12.2105    9.2095   24.2057 C.ar        1 EAA      -0.0512
      9 C6         10.9685    8.5952   24.0192 C.ar        1 EAA      -0.0258
     10 C7         14.4966    9.2274   25.0281 C.2         1 EAA       0.1527
     11 O1         15.5174    8.6474   24.6659 O.2         1 EAA      -0.3720
     12 C8         14.6526   10.3484   25.8064 C.2         1 EAA       0.0058
     13 C9         15.4868   10.2984   27.0194 C.3         1 EAA      -0.0152
     14 C10        14.6864   10.4042   28.3382 C.3         1 EAA      -0.0548
     15 C11        14.1548   11.5445   25.4260 C.2         1 EAA      -0.0907
     16 C12         9.3811    5.9697   22.9954 C.3         1 EAA       0.1241
     17 C13         9.5791    6.7268   21.7505 C.2         1 EAA       0.0656
     18 O           8.5642    7.4181   21.1887 O.co2       1 EAA      -0.5662
     19 OXT        10.8316    6.9042   21.2624 O.co2       1 EAA      -0.5662
     20 H1         12.3305   10.1313   23.7924 H           1 EAA       0.0644
     21 H2         10.2263    9.1003   23.5301 H           1 EAA       0.0559
     22 H3         16.2126   11.1197   26.9875 H           1 EAA       0.0432
     23 H4         16.0687    9.3728   27.0743 H           1 EAA       0.0432
     24 H5         15.3786   10.4298   29.1846 H           1 EAA       0.0253
     25 H6         14.0359    9.5356   28.4496 H           1 EAA       0.0253
     26 H7         14.0839   11.3122   28.3576 H           1 EAA       0.0253
     27 H8         13.7167   11.6752   24.5530 H           1 EAA       0.0460
     28 H9         14.2632   12.3462   26.0032 H           1 EAA       0.0460
     29 H10         8.3630    5.5781   22.9897 H           1 EAA       0.0788
     30 H11        10.0553    5.1105   23.0083 H           1 EAA       0.0788
@<TRIPOS>BOND
     1     1     2   1
     2     1     3  ar
     3     1     9  ar
     4     2    16   1
     5     3     4   1
     6     3     5  ar
     7     5     6   1
     8     5     7  ar
     9     7     8  ar
    10     7    10   1
    11     8     9  ar
    12    10    11   2
    13    10    12   1
    14    12    13   1
    15    12    15   2
    16    13    14   1
    17    16    17   1
    18    17    18  ar
    19    17    19  ar
    20     8    20   1
    21     9    21   1
    22    13    22   1
    23    13    23   1
    24    14    24   1
    25    14    25   1
    26    14    26   1
    27    15    27   1
    28    15    28   1
    29    16    29   1
    30    16    30   1
@<TRIPOS>SUBSTRUCTURE
     1  EAA      1

