@<TRIPOS>MOLECULE
2gss_ligand_015
    30    30
SMALL
GAST_HUCK
****
This file was generated by PARSER (from files_GN.cpp)

@<TRIPOS>ATOM
      1 C1         15.0658    8.0489   24.5181 C.ar        1 EAA       0.1139
      2 O2         16.1960    8.6525   24.0442 O.3         1 EAA      -0.2994
      3 C2         13.7755    8.5845   24.3138 C.ar        1 EAA       0.0881
      4 CL1        13.6416   10.0272   23.4271 Cl          1 EAA      -0.0767
      5 C3         12.6345    7.9425   24.8662 C.ar        1 EAA       0.0650
      6 CL2        11.0904    8.4922   24.4034 Cl          1 EAA      -0.0667
      7 C4         12.7946    6.8155   25.7293 C.ar        1 EAA       0.0377
      8 C5         14.1068    6.3071   25.9154 C.ar        1 EAA      -0.0512
      9 C6         15.2214    6.8983   25.3112 C.ar        1 EAA      -0.0258
     10 C7         11.7394    6.1846   26.4356 C.2         1 EAA       0.1527
     11 O1         11.8293    4.9958   26.7050 O.2         1 EAA      -0.3720
     12 C8         10.6667    6.8385   26.9929 C.2         1 EAA       0.0058
     13 C9          9.3210    6.2461   26.8968 C.3         1 EAA      -0.0152
     14 C10         8.9283    5.4467   28.1665 C.3         1 EAA      -0.0548
     15 C11        10.8205    8.0043   27.6449 C.2         1 EAA      -0.0907
     16 C12        16.2783    8.7005   22.6002 C.3         1 EAA       0.1241
     17 C13        17.0382    9.9010   22.1982 C.2         1 EAA       0.0656
     18 O          16.3849   10.9762   21.6833 O.co2       1 EAA      -0.5662
     19 OXT        18.3390   10.0328   22.5538 O.co2       1 EAA      -0.5662
     20 H1         14.2779    5.4907   26.5188 H           1 EAA       0.0644
     21 H2         16.1513    6.5015   25.4562 H           1 EAA       0.0559
     22 H3          9.2502    5.5636   26.0448 H           1 EAA       0.0432
     23 H4          8.5767    7.0317   26.7281 H           1 EAA       0.0432
     24 H5          7.9239    5.0283   28.0451 H           1 EAA       0.0253
     25 H6          8.9281    6.0892   29.0522 H           1 EAA       0.0253
     26 H7          9.6286    4.6211   28.3286 H           1 EAA       0.0253
     27 H8         11.7136    8.4282   27.7516 H           1 EAA       0.0460
     28 H9         10.0412    8.5000   28.0175 H           1 EAA       0.0460
     29 H10        15.2942    8.7380   22.1123 H           1 EAA       0.0788
     30 H11        16.8126    7.8222   22.2310 H           1 EAA       0.0788
@<TRIPOS>BOND
     1     1     2   1
     2     1     3  ar
     3     1     9  ar
     4     2    16   1
     5     3     4   1
     6     3     5  ar
     7     5     6   1
     8     5     7  ar
     9     7     8  ar
    10     7    10   1
    11     8     9  ar
    12    10    11   2
    13    10    12   1
    14    12    13   1
    15    12    15   2
    16    13    14   1
    17    16    17   1
    18    17    18  ar
    19    17    19  ar
    20     8    20   1
    21     9    21   1
    22    13    22   1
    23    13    23   1
    24    14    24   1
    25    14    25   1
    26    14    26   1
    27    15    27   1
    28    15    28   1
    29    16    29   1
    30    16    30   1
@<TRIPOS>SUBSTRUCTURE
     1  EAA      1

