@<TRIPOS>MOLECULE
2gss_ligand_003
    30    30
SMALL
GAST_HUCK
****
This file was generated by PARSER (from files_GN.cpp)

@<TRIPOS>ATOM
      1 C1         11.4119    5.6617   25.5604 C.ar        1 EAA       0.1139
      2 O2         11.6189    4.6804   26.4952 O.3         1 EAA      -0.2994
      3 C2         10.3739    5.6033   24.6011 C.ar        1 EAA       0.0881
      4 CL1         9.4076    4.2051   24.5253 Cl          1 EAA      -0.0767
      5 C3         10.1678    6.6980   23.7150 C.ar        1 EAA       0.0650
      6 CL2         8.8425    6.6707   22.6403 Cl          1 EAA      -0.0667
      7 C4         11.0359    7.8234   23.7624 C.ar        1 EAA       0.0377
      8 C5         12.1084    7.8276   24.6840 C.ar        1 EAA      -0.0512
      9 C6         12.2976    6.7564   25.5659 C.ar        1 EAA      -0.0258
     10 C7         10.8432    8.9379   22.9619 C.2         1 EAA       0.1527
     11 O1         10.3331    9.9284   23.4728 O.2         1 EAA      -0.3720
     12 C8         11.4323    9.0638   21.7409 C.2         1 EAA       0.0058
     13 C9         12.8433    9.4541   21.6464 C.3         1 EAA      -0.0152
     14 C10        13.0996   10.9012   22.1294 C.3         1 EAA      -0.0548
     15 C11        10.6871    8.8760   20.6332 C.2         1 EAA      -0.0907
     16 C12        10.8692    4.7990   27.7266 C.3         1 EAA       0.1241
     17 C13        10.8449    6.1500   28.3265 C.2         1 EAA       0.0656
     18 O          11.1979    6.3457   29.6147 O.co2       1 EAA      -0.5662
     19 OXT        10.3056    7.1880   27.6461 O.co2       1 EAA      -0.5662
     20 H1         12.7616    8.6142   24.7240 H           1 EAA       0.0644
     21 H2         13.0722    6.7828   26.2319 H           1 EAA       0.0559
     22 H3         13.2131    9.3824   20.6168 H           1 EAA       0.0432
     23 H4         13.4504    8.7616   22.2346 H           1 EAA       0.0432
     24 H5         14.1461   11.1642   21.9626 H           1 EAA       0.0253
     25 H6         12.8857   11.0016   23.1940 H           1 EAA       0.0253
     26 H7         12.4729   11.6008   21.5750 H           1 EAA       0.0253
     27 H8          9.7300    8.6269   20.6838 H           1 EAA       0.0460
     28 H9         11.0798    8.9906   19.7247 H           1 EAA       0.0460
     29 H10        11.3338    4.1129   28.4399 H           1 EAA       0.0788
     30 H11         9.8401    4.4590   27.5834 H           1 EAA       0.0788
@<TRIPOS>BOND
     1     1     2   1
     2     1     3  ar
     3     1     9  ar
     4     2    16   1
     5     3     4   1
     6     3     5  ar
     7     5     6   1
     8     5     7  ar
     9     7     8  ar
    10     7    10   1
    11     8     9  ar
    12    10    11   2
    13    10    12   1
    14    12    13   1
    15    12    15   2
    16    13    14   1
    17    16    17   1
    18    17    18  ar
    19    17    19  ar
    20     8    20   1
    21     9    21   1
    22    13    22   1
    23    13    23   1
    24    14    24   1
    25    14    25   1
    26    14    26   1
    27    15    27   1
    28    15    28   1
    29    16    29   1
    30    16    30   1
@<TRIPOS>SUBSTRUCTURE
     1  EAA      1

