@<TRIPOS>MOLECULE
2hb1_ligand_013
    17    17
SMALL
GAST_HUCK
****
This file was generated by PARSER (from files_GN.cpp)

@<TRIPOS>ATOM
      1 C1         44.0239   16.2802    2.3105 C.2         1 MOL       0.0087
      2 C2         44.7890   15.2756    1.7157 C.2         1 MOL       0.0393
      3 S3         44.3872   16.2810    3.9910 S.3         1 MOL      -0.0433
      4 C4         45.5173   15.0037    3.9360 C.2         1 MOL       0.0786
      5 C5         45.6011   14.5604    2.6126 C.2         1 MOL       0.0981
      6 C6         46.2311   14.5372    5.0476 C.2         1 MOL       0.0529
      7 O7         45.5806   14.1588    6.1865 O.co2       1 MOL      -0.5709
      8 O8         46.3441   13.4844    2.1874 O.3         1 MOL      -0.3150
      9 C9         45.7977   12.1781    2.4736 C.3         1 MOL       0.1194
     10 C10        44.5522   11.8411    1.7523 C.2         1 MOL       0.0649
     11 O13        43.5435   12.7517    1.7064 O.co2       1 MOL      -0.5663
     12 O14        47.5882   14.3700    4.9989 O.co2       1 MOL      -0.5709
     13 O15        44.2060   10.5429    1.5876 O.co2       1 MOL      -0.5663
     14 BR19       44.6916   14.9232   -0.1008 Br          1 MOL      -0.0693
     15 H1         43.3575   16.9031    1.8421 H           1 MOL       0.0841
     16 H2         45.6323   12.0417    3.5478 H           1 MOL       0.0780
     17 H3         46.5585   11.4521    2.1788 H           1 MOL       0.0780
@<TRIPOS>BOND
     1     1     2   2
     2     1     3   1
     3     2     5   1
     4     2    14   1
     5     3     4   1
     6     4     5   2
     7     4     6   1
     8     5     8   1
     9     6     7  ar
    10     6    12  ar
    11     8     9   1
    12     9    10   1
    13    10    11  ar
    14    10    13  ar
    15     1    15   1
    16     9    16   1
    17     9    17   1
@<TRIPOS>SUBSTRUCTURE
     1  MOL      1

