@<TRIPOS>MOLECULE
2hb1_ligand_011
    17    17
SMALL
GAST_HUCK
****
This file was generated by PARSER (from files_GN.cpp)

@<TRIPOS>ATOM
      1 C1         46.6433   13.0706    3.4196 C.2         1 MOL       0.0087
      2 C2         45.7106   14.0718    3.1529 C.2         1 MOL       0.0393
      3 S3         47.8242   13.7352    4.4700 S.3         1 MOL      -0.0433
      4 C4         47.1280   15.3029    4.5870 C.2         1 MOL       0.0786
      5 C5         45.9700   15.2972    3.7934 C.2         1 MOL       0.0981
      6 C6         47.6532   16.3509    5.3592 C.2         1 MOL       0.0529
      7 O7         46.8307   17.2255    5.9769 O.co2       1 MOL      -0.5709
      8 O8         45.1690   16.3795    3.5998 O.3         1 MOL      -0.3150
      9 C9         45.7565   17.4217    2.7974 C.3         1 MOL       0.1194
     10 C10        44.7647   17.8430    1.7973 C.2         1 MOL       0.0649
     11 O13        43.4799   18.0584    2.1673 O.co2       1 MOL      -0.5663
     12 O14        48.9848   16.6022    5.3828 O.co2       1 MOL      -0.5709
     13 O15        45.0904   17.9367    0.4868 O.co2       1 MOL      -0.5663
     14 BR19       44.2710   13.7975    2.0063 Br          1 MOL      -0.0693
     15 H1         46.6376   12.1199    3.0490 H           1 MOL       0.0841
     16 H2         46.6831   17.1418    2.2748 H           1 MOL       0.0780
     17 H3         45.9805   18.2830    3.4349 H           1 MOL       0.0780
@<TRIPOS>BOND
     1     1     2   2
     2     1     3   1
     3     2     5   1
     4     2    14   1
     5     3     4   1
     6     4     5   2
     7     4     6   1
     8     5     8   1
     9     6     7  ar
    10     6    12  ar
    11     8     9   1
    12     9    10   1
    13    10    11  ar
    14    10    13  ar
    15     1    15   1
    16     9    16   1
    17     9    17   1
@<TRIPOS>SUBSTRUCTURE
     1  MOL      1

