@<TRIPOS>MOLECULE
2hb1_ligand_010
    17    17
SMALL
GAST_HUCK
****
This file was generated by PARSER (from files_GN.cpp)

@<TRIPOS>ATOM
      1 C1         46.2201   17.3637    2.3883 C.2         1 MOL       0.0087
      2 C2         46.7751   16.1471    2.7587 C.2         1 MOL       0.0393
      3 S3         44.8402   17.0291    1.4191 S.3         1 MOL      -0.0433
      4 C4         44.9529   15.3146    1.4793 C.2         1 MOL       0.0786
      5 C5         46.0636   15.0239    2.2840 C.2         1 MOL       0.0981
      6 C6         44.0460   14.4241    0.8711 C.2         1 MOL       0.0529
      7 O7         43.5012   14.7073   -0.3336 O.co2       1 MOL      -0.5709
      8 O8         46.4477   13.7526    2.6107 O.3         1 MOL      -0.3150
      9 C9         46.3739   13.3575    4.0080 C.3         1 MOL       0.1194
     10 C10        45.6073   14.1740    4.9812 C.2         1 MOL       0.0649
     11 O13        44.6097   14.9796    4.5570 O.co2       1 MOL      -0.5663
     12 O14        43.7055   13.2499    1.4547 O.co2       1 MOL      -0.5709
     13 O15        45.6386   13.8867    6.2999 O.co2       1 MOL      -0.5663
     14 BR19       48.2764   16.0289    3.8559 Br          1 MOL      -0.0693
     15 H1         46.5573   18.2850    2.6592 H           1 MOL       0.0841
     16 H2         47.4146   13.2796    4.3575 H           1 MOL       0.0780
     17 H3         45.9652   12.3465    4.0327 H           1 MOL       0.0780
@<TRIPOS>BOND
     1     1     2   2
     2     1     3   1
     3     2     5   1
     4     2    14   1
     5     3     4   1
     6     4     5   2
     7     4     6   1
     8     5     8   1
     9     6     7  ar
    10     6    12  ar
    11     8     9   1
    12     9    10   1
    13    10    11  ar
    14    10    13  ar
    15     1    15   1
    16     9    16   1
    17     9    17   1
@<TRIPOS>SUBSTRUCTURE
     1  MOL      1

