@<TRIPOS>MOLECULE
2hb1_ligand_007
    17    17
SMALL
GAST_HUCK
****
This file was generated by PARSER (from files_GN.cpp)

@<TRIPOS>ATOM
      1 C1         43.8229   14.2626    0.0416 C.2         1 MOL       0.0087
      2 C2         44.2419   13.7067    1.2516 C.2         1 MOL       0.0393
      3 S3         43.5909   15.9466    0.2945 S.3         1 MOL      -0.0433
      4 C4         44.0175   15.9523    1.9614 C.2         1 MOL       0.0786
      5 C5         44.3737   14.6362    2.3008 C.2         1 MOL       0.0981
      6 C6         44.0173   17.0774    2.8002 C.2         1 MOL       0.0529
      7 O7         43.9639   18.3182    2.2782 O.co2       1 MOL      -0.5709
      8 O8         44.8095   14.3000    3.5498 O.3         1 MOL      -0.3150
      9 C9         46.0986   14.8581    3.8729 C.3         1 MOL       0.1194
     10 C10        46.2418   14.8669    5.3331 C.2         1 MOL       0.0649
     11 O13        46.7359   15.9442    5.9860 O.co2       1 MOL      -0.5663
     12 O14        44.0119   16.9545    4.1468 O.co2       1 MOL      -0.5709
     13 O15        45.7321   13.8483    6.0582 O.co2       1 MOL      -0.5663
     14 BR19       44.6134   11.8946    1.4347 Br          1 MOL      -0.0693
     15 H1         43.6800   13.7636   -0.8347 H           1 MOL       0.0841
     16 H2         46.2246   15.8845    3.5023 H           1 MOL       0.0780
     17 H3         46.8872   14.2353    3.4428 H           1 MOL       0.0780
@<TRIPOS>BOND
     1     1     2   2
     2     1     3   1
     3     2     5   1
     4     2    14   1
     5     3     4   1
     6     4     5   2
     7     4     6   1
     8     5     8   1
     9     6     7  ar
    10     6    12  ar
    11     8     9   1
    12     9    10   1
    13    10    11  ar
    14    10    13  ar
    15     1    15   1
    16     9    16   1
    17     9    17   1
@<TRIPOS>SUBSTRUCTURE
     1  MOL      1

