@<TRIPOS>MOLECULE
2hb1_ligand_002
    17    17
SMALL
GAST_HUCK
****
This file was generated by PARSER (from files_GN.cpp)

@<TRIPOS>ATOM
      1 C1         46.5964   12.9340    3.5369 C.2         1 MOL       0.0087
      2 C2         45.7680   13.6627    2.6815 C.2         1 MOL       0.0393
      3 S3         46.7732   13.8400    4.9855 S.3         1 MOL      -0.0433
      4 C4         45.7469   15.1447    4.5297 C.2         1 MOL       0.0786
      5 C5         45.3313   14.8932    3.2123 C.2         1 MOL       0.0981
      6 C6         45.4956   16.2911    5.2843 C.2         1 MOL       0.0529
      7 O7         44.2793   16.8773    5.2492 O.co2       1 MOL      -0.5709
      8 O8         44.6517   15.8332    2.4846 O.3         1 MOL      -0.3150
      9 C9         45.3355   17.0667    2.1348 C.3         1 MOL       0.1194
     10 C10        46.6507   17.3736    2.7438 C.2         1 MOL       0.0649
     11 O13        47.6674   16.4833    2.6532 O.co2       1 MOL      -0.5663
     12 O14        46.5130   16.9810    5.8391 O.co2       1 MOL      -0.5709
     13 O15        46.7589   18.3309    3.7025 O.co2       1 MOL      -0.5663
     14 BR19       45.3944   13.1017    0.9561 Br          1 MOL      -0.0693
     15 H1         47.0423   12.0502    3.3331 H           1 MOL       0.0841
     16 H2         44.6454   17.8766    2.4133 H           1 MOL       0.0780
     17 H3         45.4565   17.1093    1.0433 H           1 MOL       0.0780
@<TRIPOS>BOND
     1     1     2   2
     2     1     3   1
     3     2     5   1
     4     2    14   1
     5     3     4   1
     6     4     5   2
     7     4     6   1
     8     5     8   1
     9     6     7  ar
    10     6    12  ar
    11     8     9   1
    12     9    10   1
    13    10    11  ar
    14    10    13  ar
    15     1    15   1
    16     9    16   1
    17     9    17   1
@<TRIPOS>SUBSTRUCTURE
     1  MOL      1

