@<TRIPOS>MOLECULE
2hb1_ligand_006
    17    17
SMALL
GAST_HUCK
****
This file was generated by PARSER (from files_GN.cpp)

@<TRIPOS>ATOM
      1 C1         45.6401   11.4580    1.7590 C.2         1 MOL       0.0087
      2 C2         45.3119   12.7809    1.4582 C.2         1 MOL       0.0393
      3 S3         46.3196   11.4392    3.3358 S.3         1 MOL      -0.0433
      4 C4         46.1984   13.1319    3.6253 C.2         1 MOL       0.0786
      5 C5         45.6059   13.6999    2.4842 C.2         1 MOL       0.0981
      6 C6         46.6051   13.7859    4.8013 C.2         1 MOL       0.0529
      7 O7         47.6573   14.6335    4.8161 O.co2       1 MOL      -0.5709
      8 O8         45.3336   15.0351    2.3827 O.3         1 MOL      -0.3150
      9 C9         43.9432   15.3533    2.5921 C.3         1 MOL       0.1194
     10 C10        43.8783   16.7260    3.1029 C.2         1 MOL       0.0649
     11 O13        43.8891   16.9557    4.4368 O.co2       1 MOL      -0.5663
     12 O14        45.8689   13.6949    5.9291 O.co2       1 MOL      -0.5709
     13 O15        43.8472   17.7728    2.2466 O.co2       1 MOL      -0.5663
     14 BR19       44.5306   13.2650   -0.1585 Br          1 MOL      -0.0693
     15 H1         45.5009   10.6455    1.1575 H           1 MOL       0.0841
     16 H2         43.4586   14.6923    3.3205 H           1 MOL       0.0780
     17 H3         43.3944   15.2865    1.6495 H           1 MOL       0.0780
@<TRIPOS>BOND
     1     1     2   2
     2     1     3   1
     3     2     5   1
     4     2    14   1
     5     3     4   1
     6     4     5   2
     7     4     6   1
     8     5     8   1
     9     6     7  ar
    10     6    12  ar
    11     8     9   1
    12     9    10   1
    13    10    11  ar
    14    10    13  ar
    15     1    15   1
    16     9    16   1
    17     9    17   1
@<TRIPOS>SUBSTRUCTURE
     1  MOL      1

