@<TRIPOS>MOLECULE
2iwx_ligand_024
    45    46
SMALL
GAST_HUCK
****
This file was generated by PARSER (from files_GN.cpp)

@<TRIPOS>ATOM
      1 C1         59.7554   77.1980   -2.8647 C.2         1 M1S       0.2450
      2 C2         58.3406   77.1824   -2.9702 C.ar        1 M1S       0.0836
      3 C3         57.6048   76.4356   -2.0107 C.ar        1 M1S       0.0971
      4 C4         56.2089   76.3224   -2.1144 C.ar        1 M1S      -0.0045
      5 C5         55.5206   76.9457   -3.1625 C.ar        1 M1S       0.0932
      6 C6         56.2243   77.7259   -4.1047 C.ar        1 M1S       0.0655
      7 C7         57.6408   77.8658   -4.0162 C.ar        1 M1S      -0.0054
      8 C8         58.3691   78.7582   -4.9837 C.3         1 M1S       0.0540
      9 C9         58.8479   78.1478   -6.2263 C.2         1 M1S       0.1171
     10 C10        58.5391   76.7870   -6.6672 C.3         1 M1S       0.0232
     11 C11        59.2242   76.3375   -7.9967 C.3         1 M1S      -0.0368
     12 C12        58.8073   74.9398   -8.5249 C.3         1 M1S      -0.0494
     13 C13        59.0667   73.7212   -7.5973 C.3         1 M1S      -0.0463
     14 C14        60.5486   73.4564   -7.1944 C.3         1 M1S      -0.0365
     15 C15        60.9268   74.0059   -5.9025 C.2         1 M1S      -0.0986
     16 C16        61.8782   74.9393   -5.7252 C.2         1 M1S      -0.0962
     17 C17        62.3583   75.3725   -4.4224 C.3         1 M1S      -0.0086
     18 C18        61.9422   76.8207   -4.0710 C.3         1 M1S       0.0814
     19 O2         60.3427   77.4234   -1.6657 O.2         1 M1S      -0.3725
     20 O3         58.2191   75.7414   -1.0094 O.3         1 M1S      -0.3313
     21 O4         54.1757   76.7379   -3.2327 O.3         1 M1S      -0.3330
     22 CL1        55.3051   78.4477   -5.3431 Cl          1 M1S      -0.0932
     23 O5         59.5180   78.8780   -6.9466 O.2         1 M1S      -0.3883
     24 O1         60.5169   76.9078   -3.9552 O.3         1 M1S      -0.2800
     25 H1         55.6986   75.7645   -1.4259 H           1 M1S       0.0425
     26 H2         59.2161   79.2235   -4.4717 H           1 M1S       0.0663
     27 H3         57.7361   79.6055   -5.2555 H           1 M1S       0.0663
     28 H4         57.4574   76.7026   -6.7945 H           1 M1S       0.0495
     29 H5         58.8376   76.0930   -5.8814 H           1 M1S       0.0495
     30 H6         60.3083   76.3606   -7.8688 H           1 M1S       0.0290
     31 H7         58.9728   77.0621   -8.7761 H           1 M1S       0.0290
     32 H8         59.3298   74.7655   -9.4706 H           1 M1S       0.0268
     33 H9         57.7391   74.9672   -8.7566 H           1 M1S       0.0268
     34 H10        58.7121   72.8407   -8.1422 H           1 M1S       0.0285
     35 H11        58.4360   73.8062   -6.7088 H           1 M1S       0.0285
     36 H12        61.2116   73.8050   -7.9934 H           1 M1S       0.0388
     37 H13        60.6980   72.3753   -7.1205 H           1 M1S       0.0388
     38 H14        60.4800   73.6217   -5.0989 H           1 M1S       0.0450
     39 H15        62.3039   75.3503   -6.5273 H           1 M1S       0.0451
     40 H16        63.4506   75.3090   -4.4268 H           1 M1S       0.0414
     41 H17        62.0032   74.7119   -3.6245 H           1 M1S       0.0414
     42 H18        62.2743   77.5092   -4.8513 H           1 M1S       0.0631
     43 H19        62.4331   77.1109   -3.1387 H           1 M1S       0.0631
     44 H20        57.6961   75.9486   -0.1938 H           1 M1S       0.2508
     45 H21        53.7835   77.6277   -3.4312 H           1 M1S       0.2502
@<TRIPOS>BOND
     1     1     2   1
     2     1    19   2
     3     1    24   1
     4     2     3  ar
     5     2     7  ar
     6     3     4  ar
     7     3    20   1
     8     4     5  ar
     9     5     6  ar
    10     5    21   1
    11     6     7  ar
    12     6    22   1
    13     7     8   1
    14     8     9   1
    15     9    10   1
    16     9    23   2
    17    10    11   1
    18    11    12   1
    19    12    13   1
    20    13    14   1
    21    14    15   1
    22    15    16   2
    23    16    17   1
    24    17    18   1
    25    18    24   1
    26     4    25   1
    27     8    26   1
    28     8    27   1
    29    10    28   1
    30    10    29   1
    31    11    30   1
    32    11    31   1
    33    12    32   1
    34    12    33   1
    35    13    34   1
    36    13    35   1
    37    14    36   1
    38    14    37   1
    39    15    38   1
    40    16    39   1
    41    17    40   1
    42    17    41   1
    43    18    42   1
    44    18    43   1
    45    20    44   1
    46    21    45   1
@<TRIPOS>SUBSTRUCTURE
     1  M1S      1

