@<TRIPOS>MOLECULE
2iwx_ligand_010
    45    46
SMALL
GAST_HUCK
****
This file was generated by PARSER (from files_GN.cpp)

@<TRIPOS>ATOM
      1 C1         58.9972   76.4260   -1.2785 C.2         1 M1S       0.2450
      2 C2         59.8475   76.7902   -2.3543 C.ar        1 M1S       0.0836
      3 C3         60.6935   77.9148   -2.1778 C.ar        1 M1S       0.0971
      4 C4         61.5327   78.3461   -3.2162 C.ar        1 M1S      -0.0045
      5 C5         61.5423   77.6735   -4.4453 C.ar        1 M1S       0.0932
      6 C6         60.7052   76.5558   -4.6504 C.ar        1 M1S       0.0655
      7 C7         59.8559   76.0883   -3.6030 C.ar        1 M1S      -0.0054
      8 C8         59.0114   74.8606   -3.8076 C.3         1 M1S       0.0540
      9 C9         57.6679   75.0719   -4.3389 C.2         1 M1S       0.1171
     10 C10        57.1712   76.3481   -4.8521 C.3         1 M1S       0.0232
     11 C11        55.6742   76.3737   -5.2743 C.3         1 M1S      -0.0368
     12 C12        55.1864   77.7299   -5.8501 C.3         1 M1S      -0.0494
     13 C13        55.1949   78.9498   -4.8868 C.3         1 M1S      -0.0463
     14 C14        54.3210   78.8002   -3.6040 C.3         1 M1S      -0.0365
     15 C15        55.0887   78.4601   -2.4144 C.2         1 M1S      -0.0986
     16 C16        54.9111   77.3483   -1.6835 C.2         1 M1S      -0.0962
     17 C17        55.6272   77.0765   -0.4459 C.3         1 M1S      -0.0086
     18 C18        56.6276   75.9063   -0.5765 C.3         1 M1S       0.0814
     19 O2         59.5065   76.2967   -0.0305 O.2         1 M1S      -0.3725
     20 O3         60.6987   78.6469   -1.0320 O.3         1 M1S      -0.3313
     21 O4         62.3819   78.1282   -5.4107 O.3         1 M1S      -0.3330
     22 CL1        60.7582   75.8216   -6.1863 Cl          1 M1S      -0.0932
     23 O5         56.9421   74.0863   -4.3655 O.2         1 M1S      -0.3883
     24 O1         57.6671   76.2524   -1.5020 O.3         1 M1S      -0.2800
     25 H1         62.1345   79.1635   -3.0830 H           1 M1S       0.0425
     26 H2         58.9278   74.3249   -2.8583 H           1 M1S       0.0663
     27 H3         59.5229   74.1560   -4.4654 H           1 M1S       0.0663
     28 H4         57.7774   76.6207   -5.7193 H           1 M1S       0.0495
     29 H5         57.3191   77.1073   -4.0834 H           1 M1S       0.0495
     30 H6         55.0510   76.1032   -4.4199 H           1 M1S       0.0290
     31 H7         55.5174   75.6136   -6.0458 H           1 M1S       0.0290
     32 H8         54.1631   77.5941   -6.2131 H           1 M1S       0.0268
     33 H9         55.8047   77.9763   -6.7181 H           1 M1S       0.0268
     34 H10        54.8063   79.8000   -5.4555 H           1 M1S       0.0285
     35 H11        56.2276   79.2019   -4.6300 H           1 M1S       0.0285
     36 H12        53.5160   78.0816   -3.7852 H           1 M1S       0.0388
     37 H13        53.8370   79.7591   -3.3987 H           1 M1S       0.0388
     38 H14        55.7698   79.1215   -2.1173 H           1 M1S       0.0450
     39 H15        54.2488   76.6703   -1.9856 H           1 M1S       0.0451
     40 H16        54.8931   76.8335    0.3267 H           1 M1S       0.0414
     41 H17        56.1786   77.9565   -0.1009 H           1 M1S       0.0414
     42 H18        56.1190   75.0096   -0.9401 H           1 M1S       0.0631
     43 H19        57.0378   75.6818    0.4110 H           1 M1S       0.0631
     44 H20        61.2770   78.1519   -0.4160 H           1 M1S       0.2508
     45 H21        61.8069   78.6098   -6.0418 H           1 M1S       0.2502
@<TRIPOS>BOND
     1     1     2   1
     2     1    19   2
     3     1    24   1
     4     2     3  ar
     5     2     7  ar
     6     3     4  ar
     7     3    20   1
     8     4     5  ar
     9     5     6  ar
    10     5    21   1
    11     6     7  ar
    12     6    22   1
    13     7     8   1
    14     8     9   1
    15     9    10   1
    16     9    23   2
    17    10    11   1
    18    11    12   1
    19    12    13   1
    20    13    14   1
    21    14    15   1
    22    15    16   2
    23    16    17   1
    24    17    18   1
    25    18    24   1
    26     4    25   1
    27     8    26   1
    28     8    27   1
    29    10    28   1
    30    10    29   1
    31    11    30   1
    32    11    31   1
    33    12    32   1
    34    12    33   1
    35    13    34   1
    36    13    35   1
    37    14    36   1
    38    14    37   1
    39    15    38   1
    40    16    39   1
    41    17    40   1
    42    17    41   1
    43    18    42   1
    44    18    43   1
    45    20    44   1
    46    21    45   1
@<TRIPOS>SUBSTRUCTURE
     1  M1S      1

