@<TRIPOS>MOLECULE
2iwx_ligand_012
    45    46
SMALL
GAST_HUCK
****
This file was generated by PARSER (from files_GN.cpp)

@<TRIPOS>ATOM
      1 C1         61.4201   78.8040   -2.3285 C.2         1 M1S       0.2450
      2 C2         60.9230   77.6384   -1.6842 C.ar        1 M1S       0.0836
      3 C3         61.3524   77.3871   -0.3563 C.ar        1 M1S       0.0971
      4 C4         60.9418   76.2356    0.3281 C.ar        1 M1S      -0.0045
      5 C5         60.1050   75.3040   -0.2976 C.ar        1 M1S       0.0932
      6 C6         59.6527   75.5286   -1.6156 C.ar        1 M1S       0.0655
      7 C7         60.0394   76.7083   -2.3212 C.ar        1 M1S      -0.0054
      8 C8         59.4955   76.9769   -3.6975 C.3         1 M1S       0.0540
      9 C9         60.2721   76.4591   -4.8209 C.2         1 M1S       0.1171
     10 C10        61.4333   75.5795   -4.6833 C.3         1 M1S       0.0232
     11 C11        62.1783   75.2256   -6.0008 C.3         1 M1S      -0.0368
     12 C12        63.3674   74.2421   -5.8299 C.3         1 M1S      -0.0494
     13 C13        64.5721   74.7196   -4.9693 C.3         1 M1S      -0.0463
     14 C14        65.2848   76.0159   -5.4623 C.3         1 M1S      -0.0365
     15 C15        64.8816   77.2156   -4.7432 C.2         1 M1S      -0.0986
     16 C16        64.2986   78.2844   -5.3113 C.2         1 M1S      -0.0962
     17 C17        64.0023   79.5162   -4.5953 C.3         1 M1S      -0.0086
     18 C18        62.4871   79.7567   -4.4077 C.3         1 M1S       0.0814
     19 O2         61.4660   79.9816   -1.6587 O.2         1 M1S      -0.3725
     20 O3         62.1931   78.2225    0.2996 O.3         1 M1S      -0.3313
     21 O4         59.7423   74.2077    0.4144 O.3         1 M1S      -0.3330
     22 CL1        58.6627   74.3283   -2.3070 Cl          1 M1S      -0.0932
     23 O5         59.8825   76.7804   -5.9373 O.2         1 M1S      -0.3883
     24 O1         61.9252   78.7220   -3.5887 O.3         1 M1S      -0.2800
     25 H1         61.2623   76.0678    1.2854 H           1 M1S       0.0425
     26 H2         59.3764   78.0561   -3.8281 H           1 M1S       0.0663
     27 H3         58.4797   76.5853   -3.7817 H           1 M1S       0.0663
     28 H4         61.1015   74.6503   -4.2149 H           1 M1S       0.0495
     29 H5         62.1475   76.0573   -4.0122 H           1 M1S       0.0495
     30 H6         62.5339   76.1427   -6.4747 H           1 M1S       0.0290
     31 H7         61.4643   74.7603   -6.6870 H           1 M1S       0.0290
     32 H8         63.7423   73.9944   -6.8270 H           1 M1S       0.0268
     33 H9         62.9850   73.3141   -5.3954 H           1 M1S       0.0268
     34 H10        65.3071   73.9091   -4.9883 H           1 M1S       0.0285
     35 H11        64.2589   74.8199   -3.9265 H           1 M1S       0.0285
     36 H12        65.1462   76.1250   -6.5418 H           1 M1S       0.0388
     37 H13        66.3607   75.9042   -5.3002 H           1 M1S       0.0388
     38 H14        65.0884   77.2470   -3.7702 H           1 M1S       0.0450
     39 H15        64.0650   78.2505   -6.2774 H           1 M1S       0.0451
     40 H16        64.4283   80.3499   -5.1598 H           1 M1S       0.0414
     41 H17        64.4687   79.5264   -3.6061 H           1 M1S       0.0414
     42 H18        61.9772   79.7534   -5.3739 H           1 M1S       0.0631
     43 H19        62.3389   80.7412   -3.9566 H           1 M1S       0.0631
     44 H20        63.0675   78.0638   -0.1175 H           1 M1S       0.2508
     45 H21        60.3729   73.5068    0.1498 H           1 M1S       0.2502
@<TRIPOS>BOND
     1     1     2   1
     2     1    19   2
     3     1    24   1
     4     2     3  ar
     5     2     7  ar
     6     3     4  ar
     7     3    20   1
     8     4     5  ar
     9     5     6  ar
    10     5    21   1
    11     6     7  ar
    12     6    22   1
    13     7     8   1
    14     8     9   1
    15     9    10   1
    16     9    23   2
    17    10    11   1
    18    11    12   1
    19    12    13   1
    20    13    14   1
    21    14    15   1
    22    15    16   2
    23    16    17   1
    24    17    18   1
    25    18    24   1
    26     4    25   1
    27     8    26   1
    28     8    27   1
    29    10    28   1
    30    10    29   1
    31    11    30   1
    32    11    31   1
    33    12    32   1
    34    12    33   1
    35    13    34   1
    36    13    35   1
    37    14    36   1
    38    14    37   1
    39    15    38   1
    40    16    39   1
    41    17    40   1
    42    17    41   1
    43    18    42   1
    44    18    43   1
    45    20    44   1
    46    21    45   1
@<TRIPOS>SUBSTRUCTURE
     1  M1S      1

