@<TRIPOS>MOLECULE
2iwx_ligand_022
    45    46
SMALL
GAST_HUCK
****
This file was generated by PARSER (from files_GN.cpp)

@<TRIPOS>ATOM
      1 C1         56.7413   75.9163   -7.6245 C.2         1 M1S       0.2450
      2 C2         57.0815   74.5837   -7.9661 C.ar        1 M1S       0.0836
      3 C3         56.0579   73.6045   -7.9077 C.ar        1 M1S       0.0971
      4 C4         56.3471   72.2535   -8.1556 C.ar        1 M1S      -0.0045
      5 C5         57.6523   71.8606   -8.4859 C.ar        1 M1S       0.0932
      6 C6         58.6825   72.8198   -8.5748 C.ar        1 M1S       0.0655
      7 C7         58.4124   74.1961   -8.3186 C.ar        1 M1S      -0.0054
      8 C8         59.5094   75.2162   -8.4530 C.3         1 M1S       0.0540
      9 C9         60.3052   75.4966   -7.2612 C.2         1 M1S       0.1171
     10 C10        60.2184   74.7358   -6.0155 C.3         1 M1S       0.0232
     11 C11        61.0782   75.2704   -4.8339 C.3         1 M1S      -0.0368
     12 C12        61.0431   74.3945   -3.5540 C.3         1 M1S      -0.0494
     13 C13        59.6754   74.2438   -2.8314 C.3         1 M1S      -0.0463
     14 C14        59.0122   75.5674   -2.3425 C.3         1 M1S      -0.0365
     15 C15        57.9819   76.0714   -3.2406 C.2         1 M1S      -0.0986
     16 C16        58.0165   77.2724   -3.8388 C.2         1 M1S      -0.0962
     17 C17        56.9277   77.8053   -4.6455 C.3         1 M1S      -0.0086
     18 C18        57.2807   77.8947   -6.1500 C.3         1 M1S       0.0814
     19 O2         55.6434   76.4869   -8.1735 O.2         1 M1S      -0.3725
     20 O3         54.7828   73.9025   -7.5479 O.3         1 M1S      -0.3313
     21 O4         57.9083   70.5426   -8.6867 O.3         1 M1S      -0.3330
     22 CL1        60.2436   72.2385   -8.9301 Cl          1 M1S      -0.0932
     23 O5         61.1096   76.4151   -7.3590 O.2         1 M1S      -0.3883
     24 O1         57.4689   76.5776   -6.6826 O.3         1 M1S      -0.2800
     25 H1         55.6045   71.5537   -8.0856 H           1 M1S       0.0425
     26 H2         59.0772   76.1576   -8.7992 H           1 M1S       0.0663
     27 H3         60.1901   74.9251   -9.2565 H           1 M1S       0.0663
     28 H4         60.5219   73.7081   -6.2233 H           1 M1S       0.0495
     29 H5         59.1769   74.7213   -5.6897 H           1 M1S       0.0495
     30 H6         60.7606   76.2853   -4.5867 H           1 M1S       0.0290
     31 H7         62.1197   75.3268   -5.1632 H           1 M1S       0.0290
     32 H8         61.7571   74.8167   -2.8410 H           1 M1S       0.0268
     33 H9         61.4054   73.3930   -3.8093 H           1 M1S       0.0268
     34 H10        59.8543   73.6184   -1.9527 H           1 M1S       0.0285
     35 H11        58.9867   73.6830   -3.4670 H           1 M1S       0.0285
     36 H12        59.7864   76.3144   -2.1487 H           1 M1S       0.0388
     37 H13        58.5206   75.3725   -1.3844 H           1 M1S       0.0388
     38 H14        57.1864   75.4901   -3.3842 H           1 M1S       0.0450
     39 H15        58.8199   77.8477   -3.7230 H           1 M1S       0.0451
     40 H16        56.6913   78.8056   -4.2765 H           1 M1S       0.0414
     41 H17        56.0218   77.2004   -4.5398 H           1 M1S       0.0414
     42 H18        58.1999   78.4677   -6.2955 H           1 M1S       0.0631
     43 H19        56.4770   78.4202   -6.6723 H           1 M1S       0.0631
     44 H20        54.3801   74.2915   -8.3531 H           1 M1S       0.2508
     45 H21        57.6651   70.1062   -7.8431 H           1 M1S       0.2502
@<TRIPOS>BOND
     1     1     2   1
     2     1    19   2
     3     1    24   1
     4     2     3  ar
     5     2     7  ar
     6     3     4  ar
     7     3    20   1
     8     4     5  ar
     9     5     6  ar
    10     5    21   1
    11     6     7  ar
    12     6    22   1
    13     7     8   1
    14     8     9   1
    15     9    10   1
    16     9    23   2
    17    10    11   1
    18    11    12   1
    19    12    13   1
    20    13    14   1
    21    14    15   1
    22    15    16   2
    23    16    17   1
    24    17    18   1
    25    18    24   1
    26     4    25   1
    27     8    26   1
    28     8    27   1
    29    10    28   1
    30    10    29   1
    31    11    30   1
    32    11    31   1
    33    12    32   1
    34    12    33   1
    35    13    34   1
    36    13    35   1
    37    14    36   1
    38    14    37   1
    39    15    38   1
    40    16    39   1
    41    17    40   1
    42    17    41   1
    43    18    42   1
    44    18    43   1
    45    20    44   1
    46    21    45   1
@<TRIPOS>SUBSTRUCTURE
     1  M1S      1

