@<TRIPOS>MOLECULE
2iwx_ligand_042
    45    46
SMALL
GAST_HUCK
****
This file was generated by PARSER (from files_GN.cpp)

@<TRIPOS>ATOM
      1 C1         64.4587   74.7829   -0.9808 C.2         1 M1S       0.2450
      2 C2         64.9041   75.1430   -2.2782 C.ar        1 M1S       0.0836
      3 C3         65.7070   76.3031   -2.4023 C.ar        1 M1S       0.0971
      4 C4         66.1567   76.7364   -3.6565 C.ar        1 M1S      -0.0045
      5 C5         65.8156   76.0220   -4.8107 C.ar        1 M1S       0.0932
      6 C6         65.0136   74.8643   -4.7212 C.ar        1 M1S       0.0655
      7 C7         64.5574   74.3997   -3.4513 C.ar        1 M1S      -0.0054
      8 C8         63.7551   73.1325   -3.3524 C.3         1 M1S       0.0540
      9 C9         62.3045   73.2700   -3.4318 C.2         1 M1S       0.1171
     10 C10        61.6105   74.5069   -3.7868 C.3         1 M1S       0.0232
     11 C11        60.0580   74.4596   -3.7187 C.3         1 M1S      -0.0368
     12 C12        59.3490   75.7770   -4.1348 C.3         1 M1S      -0.0494
     13 C13        59.5975   77.0296   -3.2460 C.3         1 M1S      -0.0463
     14 C14        59.1855   76.8850   -1.7488 C.3         1 M1S      -0.0365
     15 C15        60.3042   76.6165   -0.8581 C.2         1 M1S      -0.0986
     16 C16        60.4189   75.5217   -0.0887 C.2         1 M1S      -0.0962
     17 C17        61.4980   75.3169    0.8652 C.3         1 M1S      -0.0086
     18 C18        62.4668   74.1878    0.4460 C.3         1 M1S       0.0814
     19 O2         65.3386   74.7301    0.0487 O.2         1 M1S      -0.3725
     20 O3         66.0562   77.0557   -1.3280 O.3         1 M1S      -0.3313
     21 O4         66.2861   76.4781   -5.9976 O.3         1 M1S      -0.3330
     22 CL1        64.6175   74.0843   -6.1820 Cl          1 M1S      -0.0932
     23 O5         61.6586   72.2510   -3.2234 O.2         1 M1S      -0.3883
     24 O1         63.1373   74.5454   -0.7699 O.3         1 M1S      -0.2800
     25 H1         66.7359   77.5762   -3.7296 H           1 M1S       0.0425
     26 H2         64.0000   72.6286   -2.4136 H           1 M1S       0.0663
     27 H3         64.0692   72.4266   -4.1232 H           1 M1S       0.0663
     28 H4         61.9024   74.7809   -4.8035 H           1 M1S       0.0495
     29 H5         61.9522   75.2940   -3.1140 H           1 M1S       0.0495
     30 H6         59.7462   74.1853   -2.7086 H           1 M1S       0.0290
     31 H7         59.7081   73.6728   -4.3922 H           1 M1S       0.0290
     32 H8         58.2720   75.5854   -4.1533 H           1 M1S       0.0268
     33 H9         59.6460   76.0192   -5.1595 H           1 M1S       0.0268
     34 H10        59.0043   77.8414   -3.6787 H           1 M1S       0.0285
     35 H11        60.6430   77.3384   -3.3357 H           1 M1S       0.0285
     36 H12        58.3994   76.1309   -1.6524 H           1 M1S       0.0388
     37 H13        58.7462   77.8275   -1.4166 H           1 M1S       0.0388
     38 H14        61.0108   77.3142   -0.8003 H           1 M1S       0.0450
     39 H15        59.7305   74.8072   -0.1579 H           1 M1S       0.0451
     40 H16        61.0510   75.0617    1.8284 H           1 M1S       0.0414
     41 H17        62.0846   76.2287    1.0124 H           1 M1S       0.0414
     42 H18        61.9183   73.2605    0.2783 H           1 M1S       0.0631
     43 H19        63.1788   74.0081    1.2558 H           1 M1S       0.0631
     44 H20        66.8236   76.5962   -0.9388 H           1 M1S       0.2508
     45 H21        67.0151   75.8626   -6.2248 H           1 M1S       0.2502
@<TRIPOS>BOND
     1     1     2   1
     2     1    19   2
     3     1    24   1
     4     2     3  ar
     5     2     7  ar
     6     3     4  ar
     7     3    20   1
     8     4     5  ar
     9     5     6  ar
    10     5    21   1
    11     6     7  ar
    12     6    22   1
    13     7     8   1
    14     8     9   1
    15     9    10   1
    16     9    23   2
    17    10    11   1
    18    11    12   1
    19    12    13   1
    20    13    14   1
    21    14    15   1
    22    15    16   2
    23    16    17   1
    24    17    18   1
    25    18    24   1
    26     4    25   1
    27     8    26   1
    28     8    27   1
    29    10    28   1
    30    10    29   1
    31    11    30   1
    32    11    31   1
    33    12    32   1
    34    12    33   1
    35    13    34   1
    36    13    35   1
    37    14    36   1
    38    14    37   1
    39    15    38   1
    40    16    39   1
    41    17    40   1
    42    17    41   1
    43    18    42   1
    44    18    43   1
    45    20    44   1
    46    21    45   1
@<TRIPOS>SUBSTRUCTURE
     1  M1S      1

