@<TRIPOS>MOLECULE
2iwx_ligand_032
    45    46
SMALL
GAST_HUCK
****
This file was generated by PARSER (from files_GN.cpp)

@<TRIPOS>ATOM
      1 C1         58.6994   70.4135   -8.6133 C.2         1 M1S       0.2450
      2 C2         59.5007   69.4925   -9.3369 C.ar        1 M1S       0.0836
      3 C3         60.4333   68.7057   -8.6086 C.ar        1 M1S       0.0971
      4 C4         61.2708   67.8027   -9.2778 C.ar        1 M1S      -0.0045
      5 C5         61.2179   67.6792  -10.6724 C.ar        1 M1S       0.0932
      6 C6         60.3071   68.4556  -11.4205 C.ar        1 M1S       0.0655
      7 C7         59.4216   69.3616  -10.7631 C.ar        1 M1S      -0.0054
      8 C8         58.4115   70.1377  -11.5659 C.3         1 M1S       0.0540
      9 C9         58.8284   71.4479  -12.0609 C.2         1 M1S       0.1171
     10 C10        60.1968   71.9607  -11.9875 C.3         1 M1S       0.0232
     11 C11        60.4043   73.4203  -12.4835 C.3         1 M1S      -0.0368
     12 C12        61.8733   73.9206  -12.4351 C.3         1 M1S      -0.0494
     13 C13        62.5405   74.0332  -11.0349 C.3         1 M1S      -0.0463
     14 C14        61.8314   74.9846  -10.0230 C.3         1 M1S      -0.0365
     15 C15        61.0000   74.2922   -9.0501 C.2         1 M1S      -0.0986
     16 C16        59.6770   74.4826   -8.9089 C.2         1 M1S      -0.0962
     17 C17        58.8798   73.8534   -7.8680 C.3         1 M1S      -0.0086
     18 C18        57.8957   72.7988   -8.4267 C.3         1 M1S       0.0814
     19 O2         58.0632   70.0154   -7.4872 O.2         1 M1S      -0.3725
     20 O3         60.6058   68.7848   -7.2580 O.3         1 M1S      -0.3313
     21 O4         62.0683   66.8018  -11.2620 O.3         1 M1S      -0.3330
     22 CL1        60.3429   68.2641  -13.1125 Cl          1 M1S      -0.0932
     23 O5         57.9545   72.1268  -12.5874 O.2         1 M1S      -0.3883
     24 O1         58.6218   71.7101   -9.0167 O.3         1 M1S      -0.2800
     25 H1         61.9440   67.2460   -8.7440 H           1 M1S       0.0425
     26 H2         57.5109   70.2714  -10.9634 H           1 M1S       0.0663
     27 H3         58.0739   69.5474  -12.4201 H           1 M1S       0.0663
     28 H4         60.8358   71.3018  -12.5795 H           1 M1S       0.0495
     29 H5         60.5266   71.9076  -10.9496 H           1 M1S       0.0495
     30 H6         59.7754   74.0962  -11.9010 H           1 M1S       0.0290
     31 H7         60.0713   73.4813  -13.5238 H           1 M1S       0.0290
     32 H8         61.9073   74.9074  -12.9051 H           1 M1S       0.0268
     33 H9         62.4842   73.2540  -13.0512 H           1 M1S       0.0268
     34 H10        63.5506   74.4201  -11.2029 H           1 M1S       0.0285
     35 H11        62.6657   73.0342  -10.6082 H           1 M1S       0.0285
     36 H12        61.2642   75.7432  -10.5686 H           1 M1S       0.0388
     37 H13        62.5958   75.5209   -9.4535 H           1 M1S       0.0388
     38 H14        61.4597   73.6629   -8.4318 H           1 M1S       0.0450
     39 H15        59.2062   75.0901   -9.5399 H           1 M1S       0.0451
     40 H16        58.3108   74.6328   -7.3543 H           1 M1S       0.0414
     41 H17        59.5139   73.3735   -7.1157 H           1 M1S       0.0414
     42 H18        57.2543   73.2448   -9.1902 H           1 M1S       0.0631
     43 H19        57.2501   72.4510   -7.6167 H           1 M1S       0.0631
     44 H20        60.6256   69.7389   -7.0350 H           1 M1S       0.2508
     45 H21        61.5552   65.9697  -11.3306 H           1 M1S       0.2502
@<TRIPOS>BOND
     1     1     2   1
     2     1    19   2
     3     1    24   1
     4     2     3  ar
     5     2     7  ar
     6     3     4  ar
     7     3    20   1
     8     4     5  ar
     9     5     6  ar
    10     5    21   1
    11     6     7  ar
    12     6    22   1
    13     7     8   1
    14     8     9   1
    15     9    10   1
    16     9    23   2
    17    10    11   1
    18    11    12   1
    19    12    13   1
    20    13    14   1
    21    14    15   1
    22    15    16   2
    23    16    17   1
    24    17    18   1
    25    18    24   1
    26     4    25   1
    27     8    26   1
    28     8    27   1
    29    10    28   1
    30    10    29   1
    31    11    30   1
    32    11    31   1
    33    12    32   1
    34    12    33   1
    35    13    34   1
    36    13    35   1
    37    14    36   1
    38    14    37   1
    39    15    38   1
    40    16    39   1
    41    17    40   1
    42    17    41   1
    43    18    42   1
    44    18    43   1
    45    20    44   1
    46    21    45   1
@<TRIPOS>SUBSTRUCTURE
     1  M1S      1

