@<TRIPOS>MOLECULE
2iwx_ligand_034
    45    46
SMALL
GAST_HUCK
****
This file was generated by PARSER (from files_GN.cpp)

@<TRIPOS>ATOM
      1 C1         58.8077   78.2303   -5.6364 C.2         1 M1S       0.2450
      2 C2         57.6276   77.4391   -5.6029 C.ar        1 M1S       0.0836
      3 C3         57.0458   77.1470   -4.3406 C.ar        1 M1S       0.0971
      4 C4         55.8916   76.3490   -4.2565 C.ar        1 M1S      -0.0045
      5 C5         55.3124   75.8058   -5.4141 C.ar        1 M1S       0.0932
      6 C6         55.8852   76.0684   -6.6782 C.ar        1 M1S       0.0655
      7 C7         57.0357   76.9058   -6.7953 C.ar        1 M1S      -0.0054
      8 C8         57.5733   77.2512   -8.1575 C.3         1 M1S       0.0540
      9 C9         58.6203   76.3816   -8.6916 C.2         1 M1S       0.1171
     10 C10        59.0376   75.1190   -8.0800 C.3         1 M1S       0.0232
     11 C11        60.1940   74.3710   -8.8061 C.3         1 M1S      -0.0368
     12 C12        60.5714   72.9988   -8.1923 C.3         1 M1S      -0.0494
     13 C13        61.0818   72.9884   -6.7229 C.3         1 M1S      -0.0463
     14 C14        62.3674   73.8276   -6.4414 C.3         1 M1S      -0.0365
     15 C15        62.0997   75.1558   -5.9112 C.2         1 M1S      -0.0986
     16 C16        62.4378   76.3029   -6.5256 C.2         1 M1S      -0.0962
     17 C17        62.2760   77.6184   -5.9223 C.3         1 M1S      -0.0086
     18 C18        61.1495   78.4509   -6.5721 C.3         1 M1S       0.0814
     19 O2         58.8731   79.3780   -4.9242 O.2         1 M1S      -0.3725
     20 O3         57.5812   77.5655   -3.1642 O.3         1 M1S      -0.3313
     21 O4         54.1928   75.0423   -5.2899 O.3         1 M1S      -0.3330
     22 CL1        55.1477   75.3165   -8.0168 Cl          1 M1S      -0.0932
     23 O5         59.1311   76.7457   -9.7443 O.2         1 M1S      -0.3883
     24 O1         59.8771   77.8178   -6.3681 O.3         1 M1S      -0.2800
     25 H1         55.4810   76.1452   -3.3444 H           1 M1S       0.0425
     26 H2         57.9421   78.2798   -8.1434 H           1 M1S       0.0663
     27 H3         56.7671   77.2703   -8.8944 H           1 M1S       0.0663
     28 H4         58.1707   74.4571   -8.0463 H           1 M1S       0.0495
     29 H5         59.3480   75.3185   -7.0547 H           1 M1S       0.0495
     30 H6         61.0795   75.0083   -8.8331 H           1 M1S       0.0290
     31 H7         59.8897   74.1915   -9.8390 H           1 M1S       0.0290
     32 H8         61.3472   72.5512   -8.8222 H           1 M1S       0.0268
     33 H9         59.6995   72.3433   -8.2536 H           1 M1S       0.0268
     34 H10        61.3065   71.9442   -6.4782 H           1 M1S       0.0285
     35 H11        60.2728   73.2901   -6.0520 H           1 M1S       0.0285
     36 H12        62.9818   73.8663   -7.3447 H           1 M1S       0.0388
     37 H13        62.9613   73.3055   -5.6859 H           1 M1S       0.0388
     38 H14        61.6666   75.2053   -5.0167 H           1 M1S       0.0450
     39 H15        62.8341   76.2648   -7.4363 H           1 M1S       0.0451
     40 H16        63.2247   78.1558   -6.0278 H           1 M1S       0.0414
     41 H17        62.0726   77.5423   -4.8495 H           1 M1S       0.0414
     42 H18        61.3199   78.5462   -7.6462 H           1 M1S       0.0631
     43 H19        61.1604   79.4577   -6.1463 H           1 M1S       0.0631
     44 H20        57.6412   78.5410   -3.2274 H           1 M1S       0.2508
     45 H21        53.5449   75.5896   -4.7935 H           1 M1S       0.2502
@<TRIPOS>BOND
     1     1     2   1
     2     1    19   2
     3     1    24   1
     4     2     3  ar
     5     2     7  ar
     6     3     4  ar
     7     3    20   1
     8     4     5  ar
     9     5     6  ar
    10     5    21   1
    11     6     7  ar
    12     6    22   1
    13     7     8   1
    14     8     9   1
    15     9    10   1
    16     9    23   2
    17    10    11   1
    18    11    12   1
    19    12    13   1
    20    13    14   1
    21    14    15   1
    22    15    16   2
    23    16    17   1
    24    17    18   1
    25    18    24   1
    26     4    25   1
    27     8    26   1
    28     8    27   1
    29    10    28   1
    30    10    29   1
    31    11    30   1
    32    11    31   1
    33    12    32   1
    34    12    33   1
    35    13    34   1
    36    13    35   1
    37    14    36   1
    38    14    37   1
    39    15    38   1
    40    16    39   1
    41    17    40   1
    42    17    41   1
    43    18    42   1
    44    18    43   1
    45    20    44   1
    46    21    45   1
@<TRIPOS>SUBSTRUCTURE
     1  M1S      1

