@<TRIPOS>MOLECULE
2iwx_ligand_001
    45    46
SMALL
GAST_HUCK
****
This file was generated by PARSER (from files_GN.cpp)

@<TRIPOS>ATOM
      1 C1         62.7180   77.3126   -5.1909 C.2         1 M1S       0.2450
      2 C2         62.9650   78.4099   -4.3250 C.ar        1 M1S       0.0836
      3 C3         64.1109   79.2067   -4.5685 C.ar        1 M1S       0.0971
      4 C4         64.4482   80.2607   -3.7077 C.ar        1 M1S      -0.0045
      5 C5         63.6625   80.5326   -2.5765 C.ar        1 M1S       0.0932
      6 C6         62.5050   79.7677   -2.3232 C.ar        1 M1S       0.0655
      7 C7         62.1244   78.7107   -3.2055 C.ar        1 M1S      -0.0054
      8 C8         60.8399   77.9612   -2.9626 C.3         1 M1S       0.0540
      9 C9         60.8929   76.8362   -2.0348 C.2         1 M1S       0.1171
     10 C10        62.0864   76.4418   -1.2867 C.3         1 M1S       0.0232
     11 C11        61.9808   75.1293   -0.4627 C.3         1 M1S      -0.0368
     12 C12        63.2459   74.7890    0.3710 C.3         1 M1S      -0.0494
     13 C13        64.5689   74.5362   -0.4102 C.3         1 M1S      -0.0463
     14 C14        64.5175   73.3964   -1.4697 C.3         1 M1S      -0.0365
     15 C15        64.3187   73.8554   -2.8354 C.2         1 M1S      -0.0986
     16 C16        63.2922   73.4762   -3.6192 C.2         1 M1S      -0.0962
     17 C17        63.1898   73.8166   -5.0308 C.3         1 M1S      -0.0086
     18 C18        62.0940   74.8687   -5.3155 C.3         1 M1S       0.0814
     19 O2         62.8383   77.4564   -6.5325 O.2         1 M1S      -0.3725
     20 O3         64.9621   78.9629   -5.6004 O.3         1 M1S      -0.3313
     21 O4         64.0588   81.5138   -1.7196 O.3         1 M1S      -0.3330
     22 CL1        61.6103   80.1601   -0.9298 Cl          1 M1S      -0.0932
     23 O5         59.8538   76.1994   -1.8974 O.2         1 M1S      -0.3883
     24 O1         62.4062   76.1003   -4.6571 O.3         1 M1S      -0.2800
     25 H1         65.2912   80.8119   -3.8892 H           1 M1S       0.0425
     26 H2         60.4463   77.5969   -3.9137 H           1 M1S       0.0663
     27 H3         60.0739   78.6551   -2.6150 H           1 M1S       0.0663
     28 H4         62.3402   77.2582   -0.6069 H           1 M1S       0.0495
     29 H5         62.9067   76.3251   -1.9957 H           1 M1S       0.0495
     30 H6         61.7503   74.2961   -1.1315 H           1 M1S       0.0290
     31 H7         61.1438   75.2260    0.2359 H           1 M1S       0.0290
     32 H8         63.0255   73.8943    0.9597 H           1 M1S       0.0268
     33 H9         63.4212   75.6021    1.0817 H           1 M1S       0.0268
     34 H10        65.3232   74.2645    0.3352 H           1 M1S       0.0285
     35 H11        64.9109   75.4708   -0.8637 H           1 M1S       0.0285
     36 H12        63.7661   72.6570   -1.1785 H           1 M1S       0.0388
     37 H13        65.4795   72.8796   -1.4591 H           1 M1S       0.0388
     38 H14        65.0214   74.4462   -3.2188 H           1 M1S       0.0450
     39 H15        62.5747   72.9065   -3.2343 H           1 M1S       0.0451
     40 H16        62.9536   72.9061   -5.5863 H           1 M1S       0.0414
     41 H17        64.1379   74.1913   -5.4242 H           1 M1S       0.0414
     42 H18        61.1247   74.5151   -4.9540 H           1 M1S       0.0631
     43 H19        62.0131   75.0114   -6.3965 H           1 M1S       0.0631
     44 H20        65.5502   78.2509   -5.2724 H           1 M1S       0.2508
     45 H21        64.7884   81.9994   -2.1656 H           1 M1S       0.2502
@<TRIPOS>BOND
     1     1     2   1
     2     1    19   2
     3     1    24   1
     4     2     3  ar
     5     2     7  ar
     6     3     4  ar
     7     3    20   1
     8     4     5  ar
     9     5     6  ar
    10     5    21   1
    11     6     7  ar
    12     6    22   1
    13     7     8   1
    14     8     9   1
    15     9    10   1
    16     9    23   2
    17    10    11   1
    18    11    12   1
    19    12    13   1
    20    13    14   1
    21    14    15   1
    22    15    16   2
    23    16    17   1
    24    17    18   1
    25    18    24   1
    26     4    25   1
    27     8    26   1
    28     8    27   1
    29    10    28   1
    30    10    29   1
    31    11    30   1
    32    11    31   1
    33    12    32   1
    34    12    33   1
    35    13    34   1
    36    13    35   1
    37    14    36   1
    38    14    37   1
    39    15    38   1
    40    16    39   1
    41    17    40   1
    42    17    41   1
    43    18    42   1
    44    18    43   1
    45    20    44   1
    46    21    45   1
@<TRIPOS>SUBSTRUCTURE
     1  M1S      1

