@<TRIPOS>MOLECULE
2iwx_ligand_006
    45    46
SMALL
GAST_HUCK
****
This file was generated by PARSER (from files_GN.cpp)

@<TRIPOS>ATOM
      1 C1         62.0249   76.0408   -1.2548 C.2         1 M1S       0.2450
      2 C2         62.6696   74.9121   -1.8182 C.ar        1 M1S       0.0836
      3 C3         63.8904   74.4896   -1.2357 C.ar        1 M1S       0.0971
      4 C4         64.5933   73.4031   -1.7742 C.ar        1 M1S      -0.0045
      5 C5         64.1169   72.7368   -2.9144 C.ar        1 M1S       0.0932
      6 C6         62.9029   73.1415   -3.5104 C.ar        1 M1S       0.0655
      7 C7         62.1499   74.2198   -2.9585 C.ar        1 M1S      -0.0054
      8 C8         60.8228   74.5958   -3.5583 C.3         1 M1S       0.0540
      9 C9         60.8453   75.5802   -4.6368 C.2         1 M1S       0.1171
     10 C10        62.0632   76.1095   -5.2508 C.3         1 M1S       0.0232
     11 C11        61.8639   77.2440   -6.2961 C.3         1 M1S      -0.0368
     12 C12        63.1631   77.7131   -7.0067 C.3         1 M1S      -0.0494
     13 C13        64.2693   78.3542   -6.1220 C.3         1 M1S      -0.0463
     14 C14        63.8532   79.6356   -5.3369 C.3         1 M1S      -0.0365
     15 C15        63.5009   79.3852   -3.9462 C.2         1 M1S      -0.0986
     16 C16        62.3019   79.6565   -3.4025 C.2         1 M1S      -0.0962
     17 C17        61.9979   79.4935   -1.9880 C.3         1 M1S      -0.0086
     18 C18        61.0396   78.3104   -1.7191 C.3         1 M1S       0.0814
     19 O2         61.8518   76.1259    0.0863 O.2         1 M1S      -0.3725
     20 O3         64.4605   75.1217   -0.1731 O.3         1 M1S      -0.3313
     21 O4         64.8438   71.7134   -3.4431 O.3         1 M1S      -0.3330
     22 CL1        62.4063   72.3018   -4.9075 Cl          1 M1S      -0.0932
     23 O5         59.7509   75.9546   -5.0416 O.2         1 M1S      -0.3883
     24 O1         61.6680   77.0720   -2.0650 O.3         1 M1S      -0.2800
     25 H1         65.4766   73.1169   -1.3478 H           1 M1S       0.0425
     26 H2         60.1684   74.9717   -2.7691 H           1 M1S       0.0663
     27 H3         60.3115   73.7018   -3.9226 H           1 M1S       0.0663
     28 H4         62.5827   75.2808   -5.7363 H           1 M1S       0.0495
     29 H5         62.7077   76.4929   -4.4596 H           1 M1S       0.0495
     30 H6         61.3867   78.1000   -5.8147 H           1 M1S       0.0290
     31 H7         61.1799   76.8842   -7.0712 H           1 M1S       0.0290
     32 H8         62.8825   78.4416   -7.7721 H           1 M1S       0.0268
     33 H9         63.5973   76.8569   -7.5299 H           1 M1S       0.0268
     34 H10        65.0834   78.6336   -6.7974 H           1 M1S       0.0285
     35 H11        64.6781   77.5993   -5.4453 H           1 M1S       0.0285
     36 H12        63.0472   80.1478   -5.8704 H           1 M1S       0.0388
     37 H13        64.7026   80.3258   -5.3226 H           1 M1S       0.0388
     38 H14        64.2178   79.0197   -3.3617 H           1 M1S       0.0450
     39 H15        61.5743   79.9958   -3.9883 H           1 M1S       0.0451
     40 H16        61.5395   80.4167   -1.6238 H           1 M1S       0.0414
     41 H17        62.9053   79.3413   -1.3984 H           1 M1S       0.0414
     42 H18        60.1305   78.4132   -2.3160 H           1 M1S       0.0631
     43 H19        60.7528   78.3186   -0.6654 H           1 M1S       0.0631
     44 H20        64.3673   76.0823   -0.3545 H           1 M1S       0.2508
     45 H21        65.5576   71.5168   -2.8015 H           1 M1S       0.2502
@<TRIPOS>BOND
     1     1     2   1
     2     1    19   2
     3     1    24   1
     4     2     3  ar
     5     2     7  ar
     6     3     4  ar
     7     3    20   1
     8     4     5  ar
     9     5     6  ar
    10     5    21   1
    11     6     7  ar
    12     6    22   1
    13     7     8   1
    14     8     9   1
    15     9    10   1
    16     9    23   2
    17    10    11   1
    18    11    12   1
    19    12    13   1
    20    13    14   1
    21    14    15   1
    22    15    16   2
    23    16    17   1
    24    17    18   1
    25    18    24   1
    26     4    25   1
    27     8    26   1
    28     8    27   1
    29    10    28   1
    30    10    29   1
    31    11    30   1
    32    11    31   1
    33    12    32   1
    34    12    33   1
    35    13    34   1
    36    13    35   1
    37    14    36   1
    38    14    37   1
    39    15    38   1
    40    16    39   1
    41    17    40   1
    42    17    41   1
    43    18    42   1
    44    18    43   1
    45    20    44   1
    46    21    45   1
@<TRIPOS>SUBSTRUCTURE
     1  M1S      1

