@<TRIPOS>MOLECULE
2iwx_ligand_036
    45    46
SMALL
GAST_HUCK
****
This file was generated by PARSER (from files_GN.cpp)

@<TRIPOS>ATOM
      1 C1         63.8819   71.0999   -7.0573 C.2         1 M1S       0.2450
      2 C2         63.4430   72.0096   -6.0561 C.ar        1 M1S       0.0836
      3 C3         62.9581   71.4747   -4.8351 C.ar        1 M1S       0.0971
      4 C4         62.4300   72.3209   -3.8486 C.ar        1 M1S      -0.0045
      5 C5         62.3819   73.7065   -4.0493 C.ar        1 M1S       0.0932
      6 C6         62.8726   74.2651   -5.2509 C.ar        1 M1S       0.0655
      7 C7         63.4278   73.4271   -6.2626 C.ar        1 M1S      -0.0054
      8 C8         64.0106   74.0376   -7.5064 C.3         1 M1S       0.0540
      9 C9         63.0823   74.3085   -8.6015 C.2         1 M1S       0.1171
     10 C10        61.6383   74.0973   -8.5273 C.3         1 M1S       0.0232
     11 C11        60.8503   74.3003   -9.8510 C.3         1 M1S      -0.0368
     12 C12        59.3088   74.1746   -9.7169 C.3         1 M1S      -0.0494
     13 C13        58.7451   72.8087   -9.2381 C.3         1 M1S      -0.0463
     14 C14        59.0859   71.5802  -10.1337 C.3         1 M1S      -0.0365
     15 C15        60.2207   70.8000   -9.6581 C.2         1 M1S      -0.0986
     16 C16        61.3490   70.5908  -10.3579 C.2         1 M1S      -0.0962
     17 C17        62.4083   69.6910   -9.9267 C.3         1 M1S      -0.0086
     18 C18        63.6889   70.4365   -9.4844 C.3         1 M1S       0.0814
     19 O2         64.7161   70.0823   -6.7383 O.2         1 M1S      -0.3725
     20 O3         62.9466   70.1361   -4.5878 O.3         1 M1S      -0.3313
     21 O4         61.8529   74.4646   -3.0481 O.3         1 M1S      -0.3330
     22 CL1        62.7435   75.9546   -5.4352 Cl          1 M1S      -0.0932
     23 O5         63.5832   74.7454   -9.6314 O.2         1 M1S      -0.3883
     24 O1         63.4078   71.2319   -8.3253 O.3         1 M1S      -0.2800
     25 H1         62.0723   71.9243   -2.9784 H           1 M1S       0.0425
     26 H2         64.8068   73.3924   -7.8900 H           1 M1S       0.0663
     27 H3         64.5255   74.9655   -7.2495 H           1 M1S       0.0663
     28 H4         61.2347   74.7764   -7.7768 H           1 M1S       0.0495
     29 H5         61.4604   73.0767   -8.1856 H           1 M1S       0.0495
     30 H6         61.2067   73.5866  -10.5979 H           1 M1S       0.0290
     31 H7         61.0651   75.3051  -10.2322 H           1 M1S       0.0290
     32 H8         58.8691   74.4021  -10.6927 H           1 M1S       0.0268
     33 H9         58.9623   74.9469   -9.0252 H           1 M1S       0.0268
     34 H10        57.6572   72.9106   -9.2177 H           1 M1S       0.0285
     35 H11        59.0555   72.6312   -8.2062 H           1 M1S       0.0285
     36 H12        59.2235   71.9033  -11.1696 H           1 M1S       0.0388
     37 H13        58.2281   70.9001  -10.1335 H           1 M1S       0.0388
     38 H14        60.1269   70.3663   -8.7662 H           1 M1S       0.0450
     39 H15        61.4702   71.0537  -11.2291 H           1 M1S       0.0451
     40 H16        62.6548   69.0271  -10.7590 H           1 M1S       0.0414
     41 H17        62.0834   69.0573   -9.0953 H           1 M1S       0.0414
     42 H18        64.0450   71.0917  -10.2854 H           1 M1S       0.0631
     43 H19        64.4746   69.7034   -9.2812 H           1 M1S       0.0631
     44 H20        62.0056   69.9254   -4.4130 H           1 M1S       0.2508
     45 H21        62.3559   75.3046   -3.0536 H           1 M1S       0.2502
@<TRIPOS>BOND
     1     1     2   1
     2     1    19   2
     3     1    24   1
     4     2     3  ar
     5     2     7  ar
     6     3     4  ar
     7     3    20   1
     8     4     5  ar
     9     5     6  ar
    10     5    21   1
    11     6     7  ar
    12     6    22   1
    13     7     8   1
    14     8     9   1
    15     9    10   1
    16     9    23   2
    17    10    11   1
    18    11    12   1
    19    12    13   1
    20    13    14   1
    21    14    15   1
    22    15    16   2
    23    16    17   1
    24    17    18   1
    25    18    24   1
    26     4    25   1
    27     8    26   1
    28     8    27   1
    29    10    28   1
    30    10    29   1
    31    11    30   1
    32    11    31   1
    33    12    32   1
    34    12    33   1
    35    13    34   1
    36    13    35   1
    37    14    36   1
    38    14    37   1
    39    15    38   1
    40    16    39   1
    41    17    40   1
    42    17    41   1
    43    18    42   1
    44    18    43   1
    45    20    44   1
    46    21    45   1
@<TRIPOS>SUBSTRUCTURE
     1  M1S      1

