@<TRIPOS>MOLECULE
2iwx_ligand_004
    45    46
SMALL
GAST_HUCK
****
This file was generated by PARSER (from files_GN.cpp)

@<TRIPOS>ATOM
      1 C1         61.6630   77.4693   -1.1995 C.2         1 M1S       0.2450
      2 C2         62.3956   77.9322   -2.3251 C.ar        1 M1S       0.0836
      3 C3         62.4875   79.3333   -2.5194 C.ar        1 M1S       0.0971
      4 C4         63.1807   79.8555   -3.6235 C.ar        1 M1S      -0.0045
      5 C5         63.7794   78.9996   -4.5605 C.ar        1 M1S       0.0932
      6 C6         63.6945   77.5998   -4.3922 C.ar        1 M1S       0.0655
      7 C7         63.0123   77.0465   -3.2662 C.ar        1 M1S      -0.0054
      8 C8         62.9831   75.5575   -3.0591 C.3         1 M1S       0.0540
      9 C9         61.8581   74.8343   -3.6484 C.2         1 M1S       0.1171
     10 C10        60.8889   75.4282   -4.5670 C.3         1 M1S       0.0232
     11 C11        59.7170   74.5056   -5.0047 C.3         1 M1S      -0.0368
     12 C12        58.7262   75.1481   -6.0120 C.3         1 M1S      -0.0494
     13 C13        57.9108   76.3778   -5.5198 C.3         1 M1S      -0.0463
     14 C14        57.0054   76.1344   -4.2728 C.3         1 M1S      -0.0365
     15 C15        57.5842   76.6159   -3.0256 C.2         1 M1S      -0.0986
     16 C16        57.8603   75.8383   -1.9648 C.2         1 M1S      -0.0962
     17 C17        58.3517   76.3547   -0.6956 C.3         1 M1S      -0.0086
     18 C18        59.8164   75.9423   -0.4142 C.3         1 M1S       0.0814
     19 O2         61.8167   78.0644    0.0089 O.2         1 M1S      -0.3725
     20 O3         61.8824   80.2110   -1.6708 O.3         1 M1S      -0.3313
     21 O4         64.4267   79.5592   -5.6184 O.3         1 M1S      -0.3330
     22 CL1        64.4207   76.6314   -5.5907 Cl          1 M1S      -0.0932
     23 O5         61.7808   73.6414   -3.3828 O.2         1 M1S      -0.3883
     24 O1         60.7029   76.5242   -1.3791 O.3         1 M1S      -0.2800
     25 H1         63.2309   80.8683   -3.7567 H           1 M1S       0.0425
     26 H2         62.9998   75.3500   -1.9861 H           1 M1S       0.0663
     27 H3         63.9078   75.1079   -3.4267 H           1 M1S       0.0663
     28 H4         61.4271   75.7499   -5.4616 H           1 M1S       0.0495
     29 H5         60.4632   76.3134   -4.0931 H           1 M1S       0.0495
     30 H6         59.1678   74.1681   -4.1225 H           1 M1S       0.0290
     31 H7         60.1424   73.6200   -5.4832 H           1 M1S       0.0290
     32 H8         58.0185   74.3743   -6.3247 H           1 M1S       0.0268
     33 H9         59.2854   75.4464   -6.9021 H           1 M1S       0.0268
     34 H10        57.2611   76.6723   -6.3498 H           1 M1S       0.0285
     35 H11        58.5861   77.2209   -5.3496 H           1 M1S       0.0285
     36 H12        56.7375   75.0751   -4.2146 H           1 M1S       0.0388
     37 H13        56.0680   76.6814   -4.4099 H           1 M1S       0.0388
     38 H14        57.7518   77.5950   -2.9543 H           1 M1S       0.0450
     39 H15        57.7201   74.8554   -2.0379 H           1 M1S       0.0451
     40 H16        57.7116   75.9665    0.1008 H           1 M1S       0.0414
     41 H17        58.2828   77.4461   -0.6498 H           1 M1S       0.0414
     42 H18        59.9203   74.8566   -0.4606 H           1 M1S       0.0631
     43 H19        60.0872   76.2514    0.5959 H           1 M1S       0.0631
     44 H20        61.3442   80.7998   -2.2372 H           1 M1S       0.2508
     45 H21        63.7818   79.5272   -6.3570 H           1 M1S       0.2502
@<TRIPOS>BOND
     1     1     2   1
     2     1    19   2
     3     1    24   1
     4     2     3  ar
     5     2     7  ar
     6     3     4  ar
     7     3    20   1
     8     4     5  ar
     9     5     6  ar
    10     5    21   1
    11     6     7  ar
    12     6    22   1
    13     7     8   1
    14     8     9   1
    15     9    10   1
    16     9    23   2
    17    10    11   1
    18    11    12   1
    19    12    13   1
    20    13    14   1
    21    14    15   1
    22    15    16   2
    23    16    17   1
    24    17    18   1
    25    18    24   1
    26     4    25   1
    27     8    26   1
    28     8    27   1
    29    10    28   1
    30    10    29   1
    31    11    30   1
    32    11    31   1
    33    12    32   1
    34    12    33   1
    35    13    34   1
    36    13    35   1
    37    14    36   1
    38    14    37   1
    39    15    38   1
    40    16    39   1
    41    17    40   1
    42    17    41   1
    43    18    42   1
    44    18    43   1
    45    20    44   1
    46    21    45   1
@<TRIPOS>SUBSTRUCTURE
     1  M1S      1

