@<TRIPOS>MOLECULE
2iwx_ligand_000
    45    46
SMALL
GAST_HUCK
****
This file was generated by PARSER (from files_GN.cpp)

@<TRIPOS>ATOM
      1 C1         62.2531   79.7707   -1.7790 C.2         1 M1S       0.2450
      2 C2         62.6272   80.9829   -2.4233 C.ar        1 M1S       0.0836
      3 C3         62.1441   82.2126   -1.8979 C.ar        1 M1S       0.0971
      4 C4         62.3692   83.4191   -2.5824 C.ar        1 M1S      -0.0045
      5 C5         63.0879   83.4327   -3.7820 C.ar        1 M1S       0.0932
      6 C6         63.6483   82.2377   -4.2833 C.ar        1 M1S       0.0655
      7 C7         63.4383   81.0018   -3.6064 C.ar        1 M1S      -0.0054
      8 C8         64.1104   79.7550   -4.1192 C.3         1 M1S       0.0540
      9 C9         63.4311   79.0159   -5.1759 C.2         1 M1S       0.1171
     10 C10        62.1789   79.4332   -5.8010 C.3         1 M1S       0.0232
     11 C11        61.5391   78.4157   -6.7879 C.3         1 M1S      -0.0368
     12 C12        60.2623   78.9223   -7.5101 C.3         1 M1S      -0.0494
     13 C13        59.0259   79.2603   -6.6268 C.3         1 M1S      -0.0463
     14 C14        58.4716   78.0863   -5.7645 C.3         1 M1S      -0.0365
     15 C15        58.9203   78.1127   -4.3797 C.2         1 M1S      -0.0986
     16 C16        59.6511   77.1493   -3.7924 C.2         1 M1S      -0.0962
     17 C17        59.9836   77.1386   -2.3745 C.3         1 M1S      -0.0086
     18 C18        61.4840   77.3862   -2.0988 C.3         1 M1S       0.0814
     19 O2         62.1909   79.6868   -0.4279 O.2         1 M1S      -0.3725
     20 O3         61.3972   82.2720   -0.7579 O.3         1 M1S      -0.3313
     21 O4         63.2461   84.6170   -4.4287 O.3         1 M1S      -0.3330
     22 CL1        64.5445   82.3546   -5.7302 Cl          1 M1S      -0.0932
     23 O5         63.9715   77.9766   -5.5343 O.2         1 M1S      -0.3883
     24 O1         61.8707   78.6993   -2.5241 O.3         1 M1S      -0.2800
     25 H1         61.9843   84.2895   -2.2142 H           1 M1S       0.0425
     26 H2         64.2829   79.0679   -3.2864 H           1 M1S       0.0663
     27 H3         65.1179   80.0058   -4.4656 H           1 M1S       0.0663
     28 H4         62.3592   80.3661   -6.3398 H           1 M1S       0.0495
     29 H5         61.4492   79.6395   -5.0123 H           1 M1S       0.0495
     30 H6         61.3101   77.4892   -6.2553 H           1 M1S       0.0290
     31 H7         62.2743   78.1737   -7.5596 H           1 M1S       0.0290
     32 H8         59.9613   78.1596   -8.2322 H           1 M1S       0.0268
     33 H9         60.5286   79.8144   -8.0802 H           1 M1S       0.0268
     34 H10        58.2302   79.5715   -7.3108 H           1 M1S       0.0285
     35 H11        59.2447   80.1323   -6.0029 H           1 M1S       0.0285
     36 H12        58.7034   77.1327   -6.2469 H           1 M1S       0.0388
     37 H13        57.3801   78.1606   -5.7370 H           1 M1S       0.0388
     38 H14        58.6286   78.8838   -3.8299 H           1 M1S       0.0450
     39 H15        59.9723   76.3845   -4.3443 H           1 M1S       0.0451
     40 H16        59.7077   76.1616   -1.9728 H           1 M1S       0.0414
     41 H17        59.4088   77.8846   -1.8247 H           1 M1S       0.0414
     42 H18        62.0941   76.6595   -2.6428 H           1 M1S       0.0631
     43 H19        61.6741   77.2480   -1.0309 H           1 M1S       0.0631
     44 H20        61.6291   83.1278   -0.3247 H           1 M1S       0.2508
     45 H21        62.3309   84.9388   -4.6076 H           1 M1S       0.2502
@<TRIPOS>BOND
     1     1     2   1
     2     1    19   2
     3     1    24   1
     4     2     3  ar
     5     2     7  ar
     6     3     4  ar
     7     3    20   1
     8     4     5  ar
     9     5     6  ar
    10     5    21   1
    11     6     7  ar
    12     6    22   1
    13     7     8   1
    14     8     9   1
    15     9    10   1
    16     9    23   2
    17    10    11   1
    18    11    12   1
    19    12    13   1
    20    13    14   1
    21    14    15   1
    22    15    16   2
    23    16    17   1
    24    17    18   1
    25    18    24   1
    26     4    25   1
    27     8    26   1
    28     8    27   1
    29    10    28   1
    30    10    29   1
    31    11    30   1
    32    11    31   1
    33    12    32   1
    34    12    33   1
    35    13    34   1
    36    13    35   1
    37    14    36   1
    38    14    37   1
    39    15    38   1
    40    16    39   1
    41    17    40   1
    42    17    41   1
    43    18    42   1
    44    18    43   1
    45    20    44   1
    46    21    45   1
@<TRIPOS>SUBSTRUCTURE
     1  M1S      1

