@<TRIPOS>MOLECULE
2iwx_ligand_027
    45    46
SMALL
GAST_HUCK
****
This file was generated by PARSER (from files_GN.cpp)

@<TRIPOS>ATOM
      1 C1         64.9003   75.0544   -3.4769 C.2         1 M1S       0.2450
      2 C2         64.5974   75.7041   -4.6994 C.ar        1 M1S       0.0836
      3 C3         65.1932   76.9675   -4.9413 C.ar        1 M1S       0.0971
      4 C4         64.9336   77.6588   -6.1338 C.ar        1 M1S      -0.0045
      5 C5         64.0590   77.1255   -7.0889 C.ar        1 M1S       0.0932
      6 C6         63.4494   75.8715   -6.8700 C.ar        1 M1S       0.0655
      7 C7         63.7264   75.1327   -5.6820 C.ar        1 M1S      -0.0054
      8 C8         63.1276   73.7679   -5.4831 C.3         1 M1S       0.0540
      9 C9         61.8487   73.7140   -4.7829 C.2         1 M1S       0.1171
     10 C10        61.0430   74.8856   -4.4439 C.3         1 M1S       0.0232
     11 C11        59.7522   74.6122   -3.6232 C.3         1 M1S      -0.0368
     12 C12        58.8936   75.8699   -3.3229 C.3         1 M1S      -0.0494
     13 C13        59.5323   76.9738   -2.4322 C.3         1 M1S      -0.0463
     14 C14        59.9756   76.5247   -1.0059 C.3         1 M1S      -0.0365
     15 C15        61.4002   76.2501   -0.8879 C.2         1 M1S      -0.0986
     16 C16        61.9180   75.0589   -0.5344 C.2         1 M1S      -0.0962
     17 C17        63.3385   74.8274   -0.3187 C.3         1 M1S      -0.0086
     18 C18        63.9735   73.9382   -1.4134 C.3         1 M1S       0.0814
     19 O2         66.1898   74.9297   -3.0865 O.2         1 M1S      -0.3725
     20 O3         65.9847   77.5929   -4.0272 O.3         1 M1S      -0.3313
     21 O4         63.8215   77.8501   -8.2114 O.3         1 M1S      -0.3330
     22 CL1        62.3712   75.3167   -8.0660 Cl          1 M1S      -0.0932
     23 O5         61.4449   72.5944   -4.4899 O.2         1 M1S      -0.3883
     24 O1         63.8945   74.5958   -2.6856 O.3         1 M1S      -0.2800
     25 H1         65.3678   78.5691   -6.2969 H           1 M1S       0.0425
     26 H2         63.8431   73.1410   -4.9445 H           1 M1S       0.0663
     27 H3         63.0052   73.2635   -6.4432 H           1 M1S       0.0663
     28 H4         60.7614   75.3843   -5.3734 H           1 M1S       0.0495
     29 H5         61.6646   75.5741   -3.8719 H           1 M1S       0.0495
     30 H6         60.0157   74.1225   -2.6838 H           1 M1S       0.0290
     31 H7         59.1273   73.9163   -4.1878 H           1 M1S       0.0290
     32 H8         57.9710   75.5366   -2.8388 H           1 M1S       0.0268
     33 H9         58.6056   76.3241   -4.2748 H           1 M1S       0.0268
     34 H10        58.7713   77.7516   -2.3129 H           1 M1S       0.0285
     35 H11        60.3633   77.4411   -2.9678 H           1 M1S       0.0285
     36 H12        59.3694   75.6734   -0.6825 H           1 M1S       0.0388
     37 H13        59.7604   77.3387   -0.3094 H           1 M1S       0.0388
     38 H14        62.0212   77.0117   -1.0424 H           1 M1S       0.0450
     39 H15        61.3040   74.2879   -0.4041 H           1 M1S       0.0451
     40 H16        63.4607   74.3383    0.6522 H           1 M1S       0.0414
     41 H17        63.8973   75.7673   -0.2774 H           1 M1S       0.0414
     42 H18        63.4452   72.9843   -1.4801 H           1 M1S       0.0631
     43 H19        65.0107   73.7258   -1.1396 H           1 M1S       0.0631
     44 H20        65.5169   77.4928   -3.1674 H           1 M1S       0.2508
     45 H21        63.0110   78.3599   -8.0033 H           1 M1S       0.2502
@<TRIPOS>BOND
     1     1     2   1
     2     1    19   2
     3     1    24   1
     4     2     3  ar
     5     2     7  ar
     6     3     4  ar
     7     3    20   1
     8     4     5  ar
     9     5     6  ar
    10     5    21   1
    11     6     7  ar
    12     6    22   1
    13     7     8   1
    14     8     9   1
    15     9    10   1
    16     9    23   2
    17    10    11   1
    18    11    12   1
    19    12    13   1
    20    13    14   1
    21    14    15   1
    22    15    16   2
    23    16    17   1
    24    17    18   1
    25    18    24   1
    26     4    25   1
    27     8    26   1
    28     8    27   1
    29    10    28   1
    30    10    29   1
    31    11    30   1
    32    11    31   1
    33    12    32   1
    34    12    33   1
    35    13    34   1
    36    13    35   1
    37    14    36   1
    38    14    37   1
    39    15    38   1
    40    16    39   1
    41    17    40   1
    42    17    41   1
    43    18    42   1
    44    18    43   1
    45    20    44   1
    46    21    45   1
@<TRIPOS>SUBSTRUCTURE
     1  M1S      1

