@<TRIPOS>MOLECULE
2iwx_ligand_028
    45    46
SMALL
GAST_HUCK
****
This file was generated by PARSER (from files_GN.cpp)

@<TRIPOS>ATOM
      1 C1         61.4877   77.5685   -7.4085 C.2         1 M1S       0.2450
      2 C2         62.3846   78.4393   -6.7296 C.ar        1 M1S       0.0836
      3 C3         63.7687   78.3051   -7.0081 C.ar        1 M1S       0.0971
      4 C4         64.7124   79.1042   -6.3527 C.ar        1 M1S      -0.0045
      5 C5         64.2971   80.0465   -5.4020 C.ar        1 M1S       0.0932
      6 C6         62.9230   80.2132   -5.1122 C.ar        1 M1S       0.0655
      7 C7         61.9467   79.4214   -5.7847 C.ar        1 M1S      -0.0054
      8 C8         60.4832   79.6393   -5.5232 C.3         1 M1S       0.0540
      9 C9         59.8637   78.7912   -4.5028 C.2         1 M1S       0.1171
     10 C10        60.6120   77.9727   -3.5461 C.3         1 M1S       0.0232
     11 C11        59.7635   77.1113   -2.5673 C.3         1 M1S      -0.0368
     12 C12        60.5812   76.2670   -1.5515 C.3         1 M1S      -0.0494
     13 C13        61.4801   75.1286   -2.1176 C.3         1 M1S      -0.0463
     14 C14        60.7528   74.0419   -2.9658 C.3         1 M1S      -0.0365
     15 C15        60.8325   74.2646   -4.4007 C.2         1 M1S      -0.0986
     16 C16        59.7695   74.4317   -5.2044 C.2         1 M1S      -0.0962
     17 C17        59.8616   74.5211   -6.6527 C.3         1 M1S      -0.0086
     18 C18        59.5692   75.9405   -7.1912 C.3         1 M1S       0.0814
     19 O2         61.6149   77.3758   -8.7451 O.2         1 M1S      -0.3725
     20 O3         64.2576   77.3710   -7.8655 O.3         1 M1S      -0.3313
     21 O4         65.2646   80.7558   -4.7545 O.3         1 M1S      -0.3330
     22 CL1        62.5227   81.3620   -3.9207 Cl          1 M1S      -0.0932
     23 O5         58.6383   78.8032   -4.4632 O.2         1 M1S      -0.3883
     24 O1         60.5502   76.8728   -6.7085 O.3         1 M1S      -0.2800
     25 H1         65.7074   78.9930   -6.5525 H           1 M1S       0.0425
     26 H2         59.9408   79.5016   -6.4644 H           1 M1S       0.0663
     27 H3         60.2868   80.6813   -5.2549 H           1 M1S       0.0663
     28 H4         61.2430   78.6369   -2.9570 H           1 M1S       0.0495
     29 H5         61.2575   77.3015   -4.1099 H           1 M1S       0.0495
     30 H6         59.1078   76.4482   -3.1338 H           1 M1S       0.0290
     31 H7         59.1222   77.7815   -1.9876 H           1 M1S       0.0290
     32 H8         59.8767   75.8166   -0.8451 H           1 M1S       0.0268
     33 H9         61.2174   76.9456   -0.9704 H           1 M1S       0.0268
     34 H10        61.9262   74.6264   -1.2519 H           1 M1S       0.0285
     35 H11        62.3118   75.5659   -2.6771 H           1 M1S       0.0285
     36 H12        59.7171   73.9429   -2.6248 H           1 M1S       0.0388
     37 H13        61.2324   73.0772   -2.7797 H           1 M1S       0.0388
     38 H14        61.7394   74.2460   -4.8093 H           1 M1S       0.0450
     39 H15        58.8613   74.4825   -4.8004 H           1 M1S       0.0451
     40 H16        59.1384   73.8234   -7.0827 H           1 M1S       0.0414
     41 H17        60.8505   74.2172   -7.0110 H           1 M1S       0.0414
     42 H18        58.5827   76.2739   -6.8605 H           1 M1S       0.0631
     43 H19        59.5603   75.9068   -8.2832 H           1 M1S       0.0631
     44 H20        64.0860   76.5134   -7.4243 H           1 M1S       0.2508
     45 H21        65.1518   81.6872   -5.0774 H           1 M1S       0.2502
@<TRIPOS>BOND
     1     1     2   1
     2     1    19   2
     3     1    24   1
     4     2     3  ar
     5     2     7  ar
     6     3     4  ar
     7     3    20   1
     8     4     5  ar
     9     5     6  ar
    10     5    21   1
    11     6     7  ar
    12     6    22   1
    13     7     8   1
    14     8     9   1
    15     9    10   1
    16     9    23   2
    17    10    11   1
    18    11    12   1
    19    12    13   1
    20    13    14   1
    21    14    15   1
    22    15    16   2
    23    16    17   1
    24    17    18   1
    25    18    24   1
    26     4    25   1
    27     8    26   1
    28     8    27   1
    29    10    28   1
    30    10    29   1
    31    11    30   1
    32    11    31   1
    33    12    32   1
    34    12    33   1
    35    13    34   1
    36    13    35   1
    37    14    36   1
    38    14    37   1
    39    15    38   1
    40    16    39   1
    41    17    40   1
    42    17    41   1
    43    18    42   1
    44    18    43   1
    45    20    44   1
    46    21    45   1
@<TRIPOS>SUBSTRUCTURE
     1  M1S      1

