@<TRIPOS>MOLECULE
2iwx_ligand_015
    45    46
SMALL
GAST_HUCK
****
This file was generated by PARSER (from files_GN.cpp)

@<TRIPOS>ATOM
      1 C1         57.3572   77.3899   -2.7715 C.2         1 M1S       0.2450
      2 C2         56.7833   77.0635   -4.0269 C.ar        1 M1S       0.0836
      3 C3         55.6001   76.2776   -4.0354 C.ar        1 M1S       0.0971
      4 C4         55.0137   75.8789   -5.2448 C.ar        1 M1S      -0.0045
      5 C5         55.5939   76.2489   -6.4699 C.ar        1 M1S       0.0932
      6 C6         56.7642   77.0351   -6.4874 C.ar        1 M1S       0.0655
      7 C7         57.3635   77.4750   -5.2707 C.ar        1 M1S      -0.0054
      8 C8         58.5447   78.4042   -5.3070 C.3         1 M1S       0.0540
      9 C9         59.8704   77.7986   -5.3856 C.2         1 M1S       0.1171
     10 C10        60.1255   76.3632   -5.5259 C.3         1 M1S       0.0232
     11 C11        61.6201   75.9325   -5.4590 C.3         1 M1S      -0.0368
     12 C12        61.8810   74.4234   -5.7172 C.3         1 M1S      -0.0494
     13 C13        61.2498   73.4065   -4.7247 C.3         1 M1S      -0.0463
     14 C14        61.6914   73.5527   -3.2375 C.3         1 M1S      -0.0365
     15 C15        60.7246   74.2503   -2.4009 C.2         1 M1S      -0.0986
     16 C16        60.9667   75.4069   -1.7604 C.2         1 M1S      -0.0962
     17 C17        60.0290   76.0420   -0.8450 C.3         1 M1S      -0.0086
     18 C18        59.4648   77.3789   -1.3787 C.3         1 M1S       0.0814
     19 O2         56.5744   77.8603   -1.7684 O.2         1 M1S      -0.3725
     20 O3         54.9947   75.8605   -2.8909 O.3         1 M1S      -0.3313
     21 O4         55.0221   75.8294   -7.6378 O.3         1 M1S      -0.3330
     22 CL1        57.4228   77.4189   -8.0127 Cl          1 M1S      -0.0932
     23 O5         60.8139   78.5767   -5.3302 O.2         1 M1S      -0.3883
     24 O1         58.6827   77.1643   -2.5604 O.3         1 M1S      -0.2800
     25 H1         54.1717   75.3013   -5.2346 H           1 M1S       0.0425
     26 H2         58.5245   79.0437   -4.4232 H           1 M1S       0.0663
     27 H3         58.4349   79.1036   -6.1378 H           1 M1S       0.0663
     28 H4         59.7139   76.0366   -6.4838 H           1 M1S       0.0495
     29 H5         59.5909   75.8381   -4.7334 H           1 M1S       0.0495
     30 H6         62.0305   76.2047   -4.4851 H           1 M1S       0.0290
     31 H7         62.1784   76.4914   -6.2148 H           1 M1S       0.0290
     32 H8         62.9635   74.2664   -5.7149 H           1 M1S       0.0268
     33 H9         61.5276   74.1808   -6.7244 H           1 M1S       0.0268
     34 H10        61.5526   72.4120   -5.0648 H           1 M1S       0.0285
     35 H11        60.1612   73.4409   -4.8135 H           1 M1S       0.0285
     36 H12        62.6794   74.0208   -3.1899 H           1 M1S       0.0388
     37 H13        61.8068   72.5519   -2.8108 H           1 M1S       0.0388
     38 H14        59.8421   73.8132   -2.2759 H           1 M1S       0.0450
     39 H15        61.8468   75.8546   -1.8944 H           1 M1S       0.0451
     40 H16        60.5540   76.2335    0.0937 H           1 M1S       0.0414
     41 H17        59.1898   75.3807   -0.6147 H           1 M1S       0.0414
     42 H18        60.2802   78.0664   -1.6197 H           1 M1S       0.0631
     43 H19        58.8653   77.8395   -0.5910 H           1 M1S       0.0631
     44 H20        55.6661   75.2876   -2.4408 H           1 M1S       0.2508
     45 H21        54.0615   75.7055   -7.4340 H           1 M1S       0.2502
@<TRIPOS>BOND
     1     1     2   1
     2     1    19   2
     3     1    24   1
     4     2     3  ar
     5     2     7  ar
     6     3     4  ar
     7     3    20   1
     8     4     5  ar
     9     5     6  ar
    10     5    21   1
    11     6     7  ar
    12     6    22   1
    13     7     8   1
    14     8     9   1
    15     9    10   1
    16     9    23   2
    17    10    11   1
    18    11    12   1
    19    12    13   1
    20    13    14   1
    21    14    15   1
    22    15    16   2
    23    16    17   1
    24    17    18   1
    25    18    24   1
    26     4    25   1
    27     8    26   1
    28     8    27   1
    29    10    28   1
    30    10    29   1
    31    11    30   1
    32    11    31   1
    33    12    32   1
    34    12    33   1
    35    13    34   1
    36    13    35   1
    37    14    36   1
    38    14    37   1
    39    15    38   1
    40    16    39   1
    41    17    40   1
    42    17    41   1
    43    18    42   1
    44    18    43   1
    45    20    44   1
    46    21    45   1
@<TRIPOS>SUBSTRUCTURE
     1  M1S      1

