@<TRIPOS>MOLECULE
2iwx_ligand_011
    45    46
SMALL
GAST_HUCK
****
This file was generated by PARSER (from files_GN.cpp)

@<TRIPOS>ATOM
      1 C1         61.3035   73.8943   -5.4294 C.2         1 M1S       0.2450
      2 C2         62.6676   73.8925   -5.0357 C.ar        1 M1S       0.0836
      3 C3         63.2285   72.6647   -4.6024 C.ar        1 M1S       0.0971
      4 C4         64.5568   72.6037   -4.1578 C.ar        1 M1S      -0.0045
      5 C5         65.3481   73.7611   -4.1269 C.ar        1 M1S       0.0932
      6 C6         64.8174   74.9947   -4.5633 C.ar        1 M1S       0.0655
      7 C7         63.4723   75.0762   -5.0350 C.ar        1 M1S      -0.0054
      8 C8         62.9271   76.3836   -5.5463 C.3         1 M1S       0.0540
      9 C9         62.2760   77.2517   -4.5682 C.2         1 M1S       0.1171
     10 C10        62.2830   77.0166   -3.1255 C.3         1 M1S       0.0232
     11 C11        61.4509   78.0114   -2.2682 C.3         1 M1S      -0.0368
     12 C12        61.5144   77.7599   -0.7371 C.3         1 M1S      -0.0494
     13 C13        60.9336   76.4190   -0.2063 C.3         1 M1S      -0.0463
     14 C14        59.4253   76.1734   -0.5178 C.3         1 M1S      -0.0365
     15 C15        59.2009   75.2816   -1.6457 C.2         1 M1S      -0.0986
     16 C16        58.5440   75.6237   -2.7682 C.2         1 M1S      -0.0962
     17 C17        58.2470   74.6880   -3.8418 C.3         1 M1S      -0.0086
     18 C18        59.0447   74.9814   -5.1327 C.3         1 M1S       0.0814
     19 O2         60.8471   72.9536   -6.2928 O.2         1 M1S      -0.3725
     20 O3         62.5075   71.5154   -4.5518 O.3         1 M1S      -0.3313
     21 O4         66.6280   73.6664   -3.6716 O.3         1 M1S      -0.3330
     22 CL1        65.8427   76.3519   -4.4800 Cl          1 M1S      -0.0932
     23 O5         61.7228   78.2475   -5.0179 O.2         1 M1S      -0.3883
     24 O1         60.4486   74.8050   -4.8965 O.3         1 M1S      -0.2800
     25 H1         64.9536   71.7119   -3.8416 H           1 M1S       0.0425
     26 H2         62.2172   76.1819   -6.3533 H           1 M1S       0.0663
     27 H3         63.7192   76.9581   -6.0288 H           1 M1S       0.0663
     28 H4         63.3179   77.0511   -2.7838 H           1 M1S       0.0495
     29 H5         61.9018   76.0139   -2.9413 H           1 M1S       0.0495
     30 H6         60.4080   77.9895   -2.5914 H           1 M1S       0.0290
     31 H7         61.8249   79.0244   -2.4485 H           1 M1S       0.0290
     32 H8         60.9762   78.5721   -0.2441 H           1 M1S       0.0268
     33 H9         62.5556   77.8330   -0.4159 H           1 M1S       0.0268
     34 H10        61.0502   76.4346    0.8811 H           1 M1S       0.0285
     35 H11        61.5477   75.5877   -0.5638 H           1 M1S       0.0285
     36 H12        58.9132   77.1325   -0.6518 H           1 M1S       0.0388
     37 H13        58.9627   75.6986    0.3531 H           1 M1S       0.0388
     38 H14        59.5362   74.3482   -1.5547 H           1 M1S       0.0450
     39 H15        58.2280   76.5602   -2.8763 H           1 M1S       0.0451
     40 H16        57.1786   74.7494   -4.0597 H           1 M1S       0.0414
     41 H17        58.4546   73.6593   -3.5394 H           1 M1S       0.0414
     42 H18        58.8713   76.0081   -5.4600 H           1 M1S       0.0631
     43 H19        58.6912   74.3153   -5.9233 H           1 M1S       0.0631
     44 H20        61.9482   71.6137   -3.7533 H           1 M1S       0.2508
     45 H21        66.6496   72.8932   -3.0651 H           1 M1S       0.2502
@<TRIPOS>BOND
     1     1     2   1
     2     1    19   2
     3     1    24   1
     4     2     3  ar
     5     2     7  ar
     6     3     4  ar
     7     3    20   1
     8     4     5  ar
     9     5     6  ar
    10     5    21   1
    11     6     7  ar
    12     6    22   1
    13     7     8   1
    14     8     9   1
    15     9    10   1
    16     9    23   2
    17    10    11   1
    18    11    12   1
    19    12    13   1
    20    13    14   1
    21    14    15   1
    22    15    16   2
    23    16    17   1
    24    17    18   1
    25    18    24   1
    26     4    25   1
    27     8    26   1
    28     8    27   1
    29    10    28   1
    30    10    29   1
    31    11    30   1
    32    11    31   1
    33    12    32   1
    34    12    33   1
    35    13    34   1
    36    13    35   1
    37    14    36   1
    38    14    37   1
    39    15    38   1
    40    16    39   1
    41    17    40   1
    42    17    41   1
    43    18    42   1
    44    18    43   1
    45    20    44   1
    46    21    45   1
@<TRIPOS>SUBSTRUCTURE
     1  M1S      1

