@<TRIPOS>MOLECULE
2iwx_ligand_007
    45    46
SMALL
GAST_HUCK
****
This file was generated by PARSER (from files_GN.cpp)

@<TRIPOS>ATOM
      1 C1         57.8002   75.8873   -5.9406 C.2         1 M1S       0.2450
      2 C2         56.8766   76.6957   -5.2317 C.ar        1 M1S       0.0836
      3 C3         56.3815   77.8534   -5.8822 C.ar        1 M1S       0.0971
      4 C4         55.4297   78.6695   -5.2538 C.ar        1 M1S      -0.0045
      5 C5         54.9983   78.3921   -3.9494 C.ar        1 M1S       0.0932
      6 C6         55.5236   77.2753   -3.2576 C.ar        1 M1S       0.0655
      7 C7         56.4442   76.3966   -3.8993 C.ar        1 M1S      -0.0054
      8 C8         56.9103   75.1473   -3.1996 C.3         1 M1S       0.0540
      9 C9         58.1385   75.2402   -2.4124 C.2         1 M1S       0.1171
     10 C10        58.8342   76.4913   -2.1230 C.3         1 M1S       0.0232
     11 C11        60.1700   76.3524   -1.3441 C.3         1 M1S      -0.0368
     12 C12        60.8731   77.6962   -1.0077 C.3         1 M1S      -0.0494
     13 C13        61.3430   78.5801   -2.1974 C.3         1 M1S      -0.0463
     14 C14        62.3707   77.9091   -3.1591 C.3         1 M1S      -0.0365
     15 C15        61.7748   77.3890   -4.3839 C.2         1 M1S      -0.0986
     16 C16        61.8128   76.0977   -4.7584 C.2         1 M1S      -0.0962
     17 C17        61.3078   75.6112   -6.0327 C.3         1 M1S      -0.0086
     18 C18        60.0431   74.7366   -5.8845 C.3         1 M1S       0.0814
     19 O2         57.5385   75.5294   -7.2208 O.2         1 M1S      -0.3725
     20 O3         56.8358   78.2373   -7.1039 O.3         1 M1S      -0.3313
     21 O4         54.0783   79.2220   -3.3846 O.3         1 M1S      -0.3330
     22 CL1        54.9905   77.0441   -1.6570 Cl          1 M1S      -0.0932
     23 O5         58.5764   74.1790   -1.9802 O.2         1 M1S      -0.3883
     24 O1         58.9709   75.5240   -5.3531 O.3         1 M1S      -0.2800
     25 H1         55.0522   79.4835   -5.7472 H           1 M1S       0.0425
     26 H2         57.0444   74.3577   -3.9444 H           1 M1S       0.0663
     27 H3         56.1225   74.7632   -2.5463 H           1 M1S       0.0663
     28 H4         58.1610   77.1260   -1.5464 H           1 M1S       0.0495
     29 H5         59.0439   76.9861   -3.0663 H           1 M1S       0.0495
     30 H6         60.8605   75.7194   -1.9093 H           1 M1S       0.0290
     31 H7         59.9681   75.8442   -0.3930 H           1 M1S       0.0290
     32 H8         61.7514   77.4713   -0.3902 H           1 M1S       0.0268
     33 H9         60.1953   78.2870   -0.3906 H           1 M1S       0.0268
     34 H10        61.8221   79.4588   -1.7614 H           1 M1S       0.0285
     35 H11        60.4761   78.9475   -2.7498 H           1 M1S       0.0285
     36 H12        62.9252   77.1339   -2.6250 H           1 M1S       0.0388
     37 H13        63.1048   78.6594   -3.4658 H           1 M1S       0.0388
     38 H14        61.3435   78.0496   -4.9909 H           1 M1S       0.0450
     39 H15        62.2197   75.4305   -4.1425 H           1 M1S       0.0451
     40 H16        62.0971   75.0204   -6.5055 H           1 M1S       0.0414
     41 H17        61.0764   76.4381   -6.7120 H           1 M1S       0.0414
     42 H18        60.2319   73.9022   -5.2061 H           1 M1S       0.0631
     43 H19        59.7842   74.3217   -6.8600 H           1 M1S       0.0631
     44 H20        56.7831   79.2195   -7.1028 H           1 M1S       0.2508
     45 H21        53.4858   79.5116   -4.1234 H           1 M1S       0.2502
@<TRIPOS>BOND
     1     1     2   1
     2     1    19   2
     3     1    24   1
     4     2     3  ar
     5     2     7  ar
     6     3     4  ar
     7     3    20   1
     8     4     5  ar
     9     5     6  ar
    10     5    21   1
    11     6     7  ar
    12     6    22   1
    13     7     8   1
    14     8     9   1
    15     9    10   1
    16     9    23   2
    17    10    11   1
    18    11    12   1
    19    12    13   1
    20    13    14   1
    21    14    15   1
    22    15    16   2
    23    16    17   1
    24    17    18   1
    25    18    24   1
    26     4    25   1
    27     8    26   1
    28     8    27   1
    29    10    28   1
    30    10    29   1
    31    11    30   1
    32    11    31   1
    33    12    32   1
    34    12    33   1
    35    13    34   1
    36    13    35   1
    37    14    36   1
    38    14    37   1
    39    15    38   1
    40    16    39   1
    41    17    40   1
    42    17    41   1
    43    18    42   1
    44    18    43   1
    45    20    44   1
    46    21    45   1
@<TRIPOS>SUBSTRUCTURE
     1  M1S      1

