@<TRIPOS>MOLECULE
2iwx_ligand_018
    45    46
SMALL
GAST_HUCK
****
This file was generated by PARSER (from files_GN.cpp)

@<TRIPOS>ATOM
      1 C1         61.9053   77.2782   -1.0796 C.2         1 M1S       0.2450
      2 C2         61.0528   77.5122   -2.1893 C.ar        1 M1S       0.0836
      3 C3         59.6532   77.4120   -1.9817 C.ar        1 M1S       0.0971
      4 C4         58.7633   77.5681   -3.0557 C.ar        1 M1S      -0.0045
      5 C5         59.2447   77.8285   -4.3464 C.ar        1 M1S       0.0932
      6 C6         60.6317   77.9513   -4.5750 C.ar        1 M1S       0.0655
      7 C7         61.5553   77.8107   -3.4970 C.ar        1 M1S      -0.0054
      8 C8         63.0269   78.0074   -3.7365 C.3         1 M1S       0.0540
      9 C9         63.7970   76.8270   -4.1207 C.2         1 M1S       0.1171
     10 C10        63.2063   75.5292   -4.4474 C.3         1 M1S       0.0232
     11 C11        64.2109   74.3760   -4.7278 C.3         1 M1S      -0.0368
     12 C12        63.5583   73.0373   -5.1686 C.3         1 M1S      -0.0494
     13 C13        62.6238   72.3248   -4.1494 C.3         1 M1S      -0.0463
     14 C14        63.2793   71.9456   -2.7867 C.3         1 M1S      -0.0365
     15 C15        63.0035   72.9015   -1.7260 C.2         1 M1S      -0.0986
     16 C16        63.9397   73.5712   -1.0350 C.2         1 M1S      -0.0962
     17 C17        63.6364   74.4204    0.1080 C.3         1 M1S      -0.0086
     18 C18        63.8452   75.9193   -0.1942 C.3         1 M1S       0.0814
     19 O2         61.6762   77.9212    0.0910 O.2         1 M1S      -0.3725
     20 O3         59.1326   77.1133   -0.7587 O.3         1 M1S      -0.3313
     21 O4         58.3412   77.9462   -5.3528 O.3         1 M1S      -0.3330
     22 CL1        61.1277   78.2571   -6.1757 Cl          1 M1S      -0.0932
     23 O5         65.0105   76.9802   -4.2005 O.2         1 M1S      -0.3883
     24 O1         62.9012   76.3574   -1.1840 O.3         1 M1S      -0.2800
     25 H1         57.7564   77.4697   -2.9021 H           1 M1S       0.0425
     26 H2         63.4764   78.4345   -2.8378 H           1 M1S       0.0663
     27 H3         63.1813   78.7727   -4.4995 H           1 M1S       0.0663
     28 H4         62.5756   75.6586   -5.3300 H           1 M1S       0.0495
     29 H5         62.5659   75.2235   -3.6199 H           1 M1S       0.0495
     30 H6         64.8236   74.2043   -3.8400 H           1 M1S       0.0290
     31 H7         64.8834   74.6900   -5.5318 H           1 M1S       0.0290
     32 H8         64.3631   72.3436   -5.4281 H           1 M1S       0.0268
     33 H9         62.9882   73.2186   -6.0840 H           1 M1S       0.0268
     34 H10        62.2902   71.3979   -4.6267 H           1 M1S       0.0285
     35 H11        61.7244   72.9281   -3.9945 H           1 M1S       0.0285
     36 H12        64.3536   71.7879   -2.9213 H           1 M1S       0.0388
     37 H13        62.8660   70.9888   -2.4558 H           1 M1S       0.0388
     38 H14        62.0492   73.0357   -1.4832 H           1 M1S       0.0450
     39 H15        64.8948   73.4798   -1.2992 H           1 M1S       0.0451
     40 H16        64.2921   74.1290    0.9329 H           1 M1S       0.0414
     41 H17        62.6072   74.2828    0.4537 H           1 M1S       0.0414
     42 H18        64.8572   76.0824   -0.5725 H           1 M1S       0.0631
     43 H19        63.7388   76.4873    0.7332 H           1 M1S       0.0631
     44 H20        58.2832   77.6004   -0.6987 H           1 M1S       0.2508
     45 H21        58.0631   78.8869   -5.3344 H           1 M1S       0.2502
@<TRIPOS>BOND
     1     1     2   1
     2     1    19   2
     3     1    24   1
     4     2     3  ar
     5     2     7  ar
     6     3     4  ar
     7     3    20   1
     8     4     5  ar
     9     5     6  ar
    10     5    21   1
    11     6     7  ar
    12     6    22   1
    13     7     8   1
    14     8     9   1
    15     9    10   1
    16     9    23   2
    17    10    11   1
    18    11    12   1
    19    12    13   1
    20    13    14   1
    21    14    15   1
    22    15    16   2
    23    16    17   1
    24    17    18   1
    25    18    24   1
    26     4    25   1
    27     8    26   1
    28     8    27   1
    29    10    28   1
    30    10    29   1
    31    11    30   1
    32    11    31   1
    33    12    32   1
    34    12    33   1
    35    13    34   1
    36    13    35   1
    37    14    36   1
    38    14    37   1
    39    15    38   1
    40    16    39   1
    41    17    40   1
    42    17    41   1
    43    18    42   1
    44    18    43   1
    45    20    44   1
    46    21    45   1
@<TRIPOS>SUBSTRUCTURE
     1  M1S      1

