@<TRIPOS>MOLECULE
2iwx_ligand_039
    45    46
SMALL
GAST_HUCK
****
This file was generated by PARSER (from files_GN.cpp)

@<TRIPOS>ATOM
      1 C1         64.4133   78.4482   -3.8736 C.2         1 M1S       0.2450
      2 C2         63.9185   79.7272   -3.5138 C.ar        1 M1S       0.0836
      3 C3         62.7787   79.7815   -2.6744 C.ar        1 M1S       0.0971
      4 C4         62.2205   81.0126   -2.3031 C.ar        1 M1S      -0.0045
      5 C5         62.7821   82.2104   -2.7642 C.ar        1 M1S       0.0932
      6 C6         63.9182   82.1863   -3.6041 C.ar        1 M1S       0.0655
      7 C7         64.5121   80.9455   -3.9803 C.ar        1 M1S      -0.0054
      8 C8         65.7592   80.9263   -4.8216 C.3         1 M1S       0.0540
      9 C9         65.5693   80.8749   -6.2681 C.2         1 M1S       0.1171
     10 C10        64.2777   81.0331   -6.9372 C.3         1 M1S       0.0232
     11 C11        64.2859   80.8449   -8.4805 C.3         1 M1S      -0.0368
     12 C12        62.9097   81.0531   -9.1667 C.3         1 M1S      -0.0494
     13 C13        61.7763   80.0536   -8.8002 C.3         1 M1S      -0.0463
     14 C14        62.0774   78.5533   -9.1048 C.3         1 M1S      -0.0365
     15 C15        62.4811   77.7900   -7.9331 C.2         1 M1S      -0.0986
     16 C16        63.6613   77.1584   -7.8019 C.2         1 M1S      -0.0962
     17 C17        64.0056   76.3236   -6.6612 C.3         1 M1S      -0.0086
     18 C18        65.1099   76.9429   -5.7752 C.3         1 M1S       0.0814
     19 O2         64.6115   77.5088   -2.9201 O.2         1 M1S      -0.3725
     20 O3         62.1620   78.6597   -2.2227 O.3         1 M1S      -0.3313
     21 O4         62.2027   83.3683   -2.3643 O.3         1 M1S      -0.3330
     22 CL1        64.5089   83.6921   -4.1368 Cl          1 M1S      -0.0932
     23 O5         66.5851   80.7187   -6.9363 O.2         1 M1S      -0.3883
     24 O1         64.6324   78.1572   -5.1829 O.3         1 M1S      -0.2800
     25 H1         61.3923   81.0400   -1.7004 H           1 M1S       0.0425
     26 H2         66.3727   80.0734   -4.5241 H           1 M1S       0.0663
     27 H3         66.3787   81.7949   -4.5945 H           1 M1S       0.0663
     28 H4         63.9007   82.0337   -6.7130 H           1 M1S       0.0495
     29 H5         63.5841   80.3076   -6.5117 H           1 M1S       0.0495
     30 H6         64.6615   79.8497   -8.7229 H           1 M1S       0.0290
     31 H7         64.9818   81.5699   -8.9126 H           1 M1S       0.0290
     32 H8         63.0632   81.0062  -10.2471 H           1 M1S       0.0268
     33 H9         62.5605   82.0648   -8.9394 H           1 M1S       0.0268
     34 H10        60.9003   80.3427   -9.3895 H           1 M1S       0.0285
     35 H11        61.4924   80.1896   -7.7528 H           1 M1S       0.0285
     36 H12        62.8144   78.4792   -9.9097 H           1 M1S       0.0388
     37 H13        61.1637   78.0839   -9.4812 H           1 M1S       0.0388
     38 H14        61.8164   77.7122   -7.1975 H           1 M1S       0.0450
     39 H15        64.3395   77.2505   -8.5229 H           1 M1S       0.0451
     40 H16        64.3519   75.3582   -7.0383 H           1 M1S       0.0414
     41 H17        63.1336   76.1267   -6.0290 H           1 M1S       0.0414
     42 H18        65.9947   77.1728   -6.3726 H           1 M1S       0.0631
     43 H19        65.4005   76.2183   -5.0117 H           1 M1S       0.0631
     44 H20        62.6385   78.4405   -1.3946 H           1 M1S       0.2508
     45 H21        62.6213   83.5645   -1.4995 H           1 M1S       0.2502
@<TRIPOS>BOND
     1     1     2   1
     2     1    19   2
     3     1    24   1
     4     2     3  ar
     5     2     7  ar
     6     3     4  ar
     7     3    20   1
     8     4     5  ar
     9     5     6  ar
    10     5    21   1
    11     6     7  ar
    12     6    22   1
    13     7     8   1
    14     8     9   1
    15     9    10   1
    16     9    23   2
    17    10    11   1
    18    11    12   1
    19    12    13   1
    20    13    14   1
    21    14    15   1
    22    15    16   2
    23    16    17   1
    24    17    18   1
    25    18    24   1
    26     4    25   1
    27     8    26   1
    28     8    27   1
    29    10    28   1
    30    10    29   1
    31    11    30   1
    32    11    31   1
    33    12    32   1
    34    12    33   1
    35    13    34   1
    36    13    35   1
    37    14    36   1
    38    14    37   1
    39    15    38   1
    40    16    39   1
    41    17    40   1
    42    17    41   1
    43    18    42   1
    44    18    43   1
    45    20    44   1
    46    21    45   1
@<TRIPOS>SUBSTRUCTURE
     1  M1S      1

