@<TRIPOS>MOLECULE
2iwx_ligand_019
    45    46
SMALL
GAST_HUCK
****
This file was generated by PARSER (from files_GN.cpp)

@<TRIPOS>ATOM
      1 C1         60.8573   80.1101   -5.6283 C.2         1 M1S       0.2450
      2 C2         61.6385   80.3934   -4.4833 C.ar        1 M1S       0.0836
      3 C3         62.5219   81.5057   -4.5253 C.ar        1 M1S       0.0971
      4 C4         63.3594   81.7816   -3.4348 C.ar        1 M1S      -0.0045
      5 C5         63.3299   80.9769   -2.2887 C.ar        1 M1S       0.0932
      6 C6         62.4161   79.9049   -2.2022 C.ar        1 M1S       0.0655
      7 C7         61.5609   79.5908   -3.2988 C.ar        1 M1S      -0.0054
      8 C8         60.5874   78.4470   -3.1907 C.3         1 M1S       0.0540
      9 C9         61.0695   77.1364   -3.6221 C.2         1 M1S       0.1171
     10 C10        62.4563   76.8388   -3.9831 C.3         1 M1S       0.0232
     11 C11        62.7279   75.4037   -4.5180 C.3         1 M1S      -0.0368
     12 C12        64.2135   75.1028   -4.8552 C.3         1 M1S      -0.0494
     13 C13        64.8639   75.9238   -6.0050 C.3         1 M1S      -0.0463
     14 C14        64.1761   75.8003   -7.3999 C.3         1 M1S      -0.0365
     15 C15        63.3042   76.9203   -7.7252 C.2         1 M1S      -0.0986
     16 C16        61.9875   76.8116   -7.9733 C.2         1 M1S      -0.0962
     17 C17        61.1490   77.9247   -8.3915 C.3         1 M1S      -0.0086
     18 C18        60.1441   78.3524   -7.2992 C.3         1 M1S       0.0814
     19 O2         60.0550   81.0739   -6.1331 O.2         1 M1S      -0.3725
     20 O3         62.6942   82.3130   -5.6083 O.3         1 M1S      -0.3313
     21 O4         64.1860   81.2646   -1.2731 O.3         1 M1S      -0.3330
     22 CL1        62.3809   79.0348   -0.7400 Cl          1 M1S      -0.0932
     23 O5         60.2333   76.2408   -3.6453 O.2         1 M1S      -0.3883
     24 O1         60.8628   78.8588   -6.1652 O.3         1 M1S      -0.2800
     25 H1         64.0081   82.5728   -3.4751 H           1 M1S       0.0425
     26 H2         59.6848   78.6899   -3.7575 H           1 M1S       0.0663
     27 H3         60.2320   78.3501   -2.1635 H           1 M1S       0.0663
     28 H4         63.0812   77.0023   -3.1019 H           1 M1S       0.0495
     29 H5         62.7675   77.5466   -4.7512 H           1 M1S       0.0495
     30 H6         62.1162   75.2240   -5.4042 H           1 M1S       0.0290
     31 H7         62.4142   74.6852   -3.7556 H           1 M1S       0.0290
     32 H8         64.2916   74.0430   -5.1138 H           1 M1S       0.0268
     33 H9         64.8096   75.2530   -3.9510 H           1 M1S       0.0268
     34 H10        65.8898   75.5568   -6.1094 H           1 M1S       0.0285
     35 H11        64.9467   76.9718   -5.7041 H           1 M1S       0.0285
     36 H12        63.6484   74.8443   -7.4682 H           1 M1S       0.0388
     37 H13        64.9518   75.7789   -8.1714 H           1 M1S       0.0388
     38 H14        63.7313   77.8161   -7.7993 H           1 M1S       0.0450
     39 H15        61.5502   75.9239   -7.8700 H           1 M1S       0.0451
     40 H16        60.5995   77.6205   -9.2859 H           1 M1S       0.0414
     41 H17        61.7483   78.7992   -8.6624 H           1 M1S       0.0414
     42 H18        59.5300   77.5008   -6.9930 H           1 M1S       0.0631
     43 H19        59.4784   79.1115   -7.7136 H           1 M1S       0.0631
     44 H20        61.8136   82.4875   -5.9881 H           1 M1S       0.2508
     45 H21        64.9157   81.7872   -1.6714 H           1 M1S       0.2502
@<TRIPOS>BOND
     1     1     2   1
     2     1    19   2
     3     1    24   1
     4     2     3  ar
     5     2     7  ar
     6     3     4  ar
     7     3    20   1
     8     4     5  ar
     9     5     6  ar
    10     5    21   1
    11     6     7  ar
    12     6    22   1
    13     7     8   1
    14     8     9   1
    15     9    10   1
    16     9    23   2
    17    10    11   1
    18    11    12   1
    19    12    13   1
    20    13    14   1
    21    14    15   1
    22    15    16   2
    23    16    17   1
    24    17    18   1
    25    18    24   1
    26     4    25   1
    27     8    26   1
    28     8    27   1
    29    10    28   1
    30    10    29   1
    31    11    30   1
    32    11    31   1
    33    12    32   1
    34    12    33   1
    35    13    34   1
    36    13    35   1
    37    14    36   1
    38    14    37   1
    39    15    38   1
    40    16    39   1
    41    17    40   1
    42    17    41   1
    43    18    42   1
    44    18    43   1
    45    20    44   1
    46    21    45   1
@<TRIPOS>SUBSTRUCTURE
     1  M1S      1

