@<TRIPOS>MOLECULE
2iwx_ligand_020
    45    46
SMALL
GAST_HUCK
****
This file was generated by PARSER (from files_GN.cpp)

@<TRIPOS>ATOM
      1 C1         64.3042   77.0284   -6.3599 C.2         1 M1S       0.2450
      2 C2         64.1167   78.3019   -5.7638 C.ar        1 M1S       0.0836
      3 C3         64.0827   78.3575   -4.3452 C.ar        1 M1S       0.0971
      4 C4         63.9090   79.5892   -3.6887 C.ar        1 M1S      -0.0045
      5 C5         63.7958   80.7825   -4.4198 C.ar        1 M1S       0.0932
      6 C6         63.8167   80.7429   -5.8312 C.ar        1 M1S       0.0655
      7 C7         63.9706   79.5057   -6.5252 C.ar        1 M1S      -0.0054
      8 C8         64.0069   79.4722   -8.0233 C.3         1 M1S       0.0540
      9 C9         62.7391   79.2334   -8.7116 C.2         1 M1S       0.1171
     10 C10        61.4362   79.1235   -8.0509 C.3         1 M1S       0.0232
     11 C11        60.2441   78.7527   -8.9791 C.3         1 M1S      -0.0368
     12 C12        58.8460   78.7179   -8.3009 C.3         1 M1S      -0.0494
     13 C13        58.6219   77.6757   -7.1690 C.3         1 M1S      -0.0463
     14 C14        58.8129   76.1804   -7.5758 C.3         1 M1S      -0.0365
     15 C15        60.1149   75.6380   -7.2076 C.2         1 M1S      -0.0986
     16 C16        61.0082   75.1453   -8.0815 C.2         1 M1S      -0.0962
     17 C17        62.2521   74.5084   -7.6850 C.3         1 M1S      -0.0086
     18 C18        63.4993   75.3413   -8.0471 C.3         1 M1S       0.0814
     19 O2         65.3042   76.2318   -5.9181 O.2         1 M1S      -0.3725
     20 O3         64.1407   77.2286   -3.5863 O.3         1 M1S      -0.3313
     21 O4         63.6213   81.9471   -3.7326 O.3         1 M1S      -0.3330
     22 CL1        63.6512   82.2345   -6.6343 Cl          1 M1S      -0.0932
     23 O5         62.8105   79.1308   -9.9311 O.2         1 M1S      -0.3883
     24 O1         63.4715   76.5895   -7.3404 O.3         1 M1S      -0.2800
     25 H1         63.8480   79.6141   -2.6684 H           1 M1S       0.0425
     26 H2         64.7179   78.7046   -8.3436 H           1 M1S       0.0663
     27 H3         64.4299   80.4006   -8.4169 H           1 M1S       0.0663
     28 H4         61.2191   80.0780   -7.5655 H           1 M1S       0.0495
     29 H5         61.5043   78.3624   -7.2750 H           1 M1S       0.0495
     30 H6         60.4364   77.7814   -9.4398 H           1 M1S       0.0290
     31 H7         60.1904   79.4903   -9.7842 H           1 M1S       0.0290
     32 H8         58.1016   78.5321   -9.0828 H           1 M1S       0.0268
     33 H9         58.6340   79.7076   -7.8922 H           1 M1S       0.0268
     34 H10        57.5852   77.7978   -6.8371 H           1 M1S       0.0285
     35 H11        59.2490   77.9292   -6.3117 H           1 M1S       0.0285
     36 H12        58.6088   76.0598   -8.6437 H           1 M1S       0.0388
     37 H13        58.0661   75.5797   -7.0485 H           1 M1S       0.0388
     38 H14        60.3250   75.6049   -6.2369 H           1 M1S       0.0450
     39 H15        60.8145   75.2084   -9.0557 H           1 M1S       0.0451
     40 H16        62.3132   73.5367   -8.1869 H           1 M1S       0.0414
     41 H17        62.2760   74.3105   -6.6059 H           1 M1S       0.0414
     42 H18        63.5243   75.5455   -9.1175 H           1 M1S       0.0631
     43 H19        64.3911   74.7668   -7.7968 H           1 M1S       0.0631
     44 H20        64.8530   77.3906   -2.9248 H           1 M1S       0.2508
     45 H21        64.4518   82.0857   -3.2137 H           1 M1S       0.2502
@<TRIPOS>BOND
     1     1     2   1
     2     1    19   2
     3     1    24   1
     4     2     3  ar
     5     2     7  ar
     6     3     4  ar
     7     3    20   1
     8     4     5  ar
     9     5     6  ar
    10     5    21   1
    11     6     7  ar
    12     6    22   1
    13     7     8   1
    14     8     9   1
    15     9    10   1
    16     9    23   2
    17    10    11   1
    18    11    12   1
    19    12    13   1
    20    13    14   1
    21    14    15   1
    22    15    16   2
    23    16    17   1
    24    17    18   1
    25    18    24   1
    26     4    25   1
    27     8    26   1
    28     8    27   1
    29    10    28   1
    30    10    29   1
    31    11    30   1
    32    11    31   1
    33    12    32   1
    34    12    33   1
    35    13    34   1
    36    13    35   1
    37    14    36   1
    38    14    37   1
    39    15    38   1
    40    16    39   1
    41    17    40   1
    42    17    41   1
    43    18    42   1
    44    18    43   1
    45    20    44   1
    46    21    45   1
@<TRIPOS>SUBSTRUCTURE
     1  M1S      1

