@<TRIPOS>MOLECULE
2iwx_ligand_031
    45    46
SMALL
GAST_HUCK
****
This file was generated by PARSER (from files_GN.cpp)

@<TRIPOS>ATOM
      1 C1         61.4537   68.4584  -12.5593 C.2         1 M1S       0.2450
      2 C2         61.1353   68.3587  -11.1783 C.ar        1 M1S       0.0836
      3 C3         61.3138   67.1015  -10.5445 C.ar        1 M1S       0.0971
      4 C4         60.9777   66.9264   -9.1970 C.ar        1 M1S      -0.0045
      5 C5         60.4324   67.9815   -8.4519 C.ar        1 M1S       0.0932
      6 C6         60.2452   69.2434   -9.0538 C.ar        1 M1S       0.0655
      7 C7         60.6210   69.4594  -10.4144 C.ar        1 M1S      -0.0054
      8 C8         60.5271   70.8349  -11.0133 C.3         1 M1S       0.0540
      9 C9         59.2635   71.1936  -11.6493 C.2         1 M1S       0.1171
     10 C10        58.0609   70.3628  -11.6192 C.3         1 M1S       0.0232
     11 C11        56.8526   70.8916  -12.4407 C.3         1 M1S      -0.0368
     12 C12        55.5647   70.0328  -12.3243 C.3         1 M1S      -0.0494
     13 C13        55.6101   68.5677  -12.8460 C.3         1 M1S      -0.0463
     14 C14        55.9831   68.3687  -14.3474 C.3         1 M1S      -0.0365
     15 C15        57.3821   68.0215  -14.5535 C.2         1 M1S      -0.0986
     16 C16        58.2497   68.7710  -15.2543 C.2         1 M1S      -0.0962
     17 C17        59.6086   68.3601  -15.5719 C.3         1 M1S      -0.0086
     18 C18        60.6757   69.2060  -14.8407 C.3         1 M1S       0.0814
     19 O2         62.5866   67.8903  -13.0359 O.2         1 M1S      -0.3725
     20 O3         61.7359   65.9994  -11.2146 O.3         1 M1S      -0.3313
     21 O4         60.0981   67.7369   -7.1584 O.3         1 M1S      -0.3330
     22 CL1        59.5641   70.4662   -8.0829 Cl          1 M1S      -0.0932
     23 O5         59.2402   72.2787  -12.2191 O.2         1 M1S      -0.3883
     24 O1         60.5704   69.0322  -13.4196 O.3         1 M1S      -0.2800
     25 H1         61.1022   66.0112   -8.7544 H           1 M1S       0.0425
     26 H2         61.3218   70.9500  -11.7512 H           1 M1S       0.0663
     27 H3         60.7512   71.5854  -10.2540 H           1 M1S       0.0663
     28 H4         57.7487   70.2650  -10.5780 H           1 M1S       0.0495
     29 H5         58.3130   69.3708  -11.9936 H           1 M1S       0.0495
     30 H6         57.1329   70.9819  -13.4941 H           1 M1S       0.0290
     31 H7         56.6051   71.8967  -12.0810 H           1 M1S       0.0290
     32 H8         54.7661   70.5586  -12.8553 H           1 M1S       0.0268
     33 H9         55.2743   70.0018  -11.2733 H           1 M1S       0.0268
     34 H10        54.6040   68.1601  -12.7016 H           1 M1S       0.0285
     35 H11        56.2741   67.9727  -12.2081 H           1 M1S       0.0285
     36 H12        55.6918   69.2496  -14.9234 H           1 M1S       0.0388
     37 H13        55.3969   67.5338  -14.7415 H           1 M1S       0.0388
     38 H14        57.6968   67.1578  -14.1714 H           1 M1S       0.0450
     39 H15        57.9494   69.6551  -15.5988 H           1 M1S       0.0451
     40 H16        59.7467   68.4706  -16.6507 H           1 M1S       0.0414
     41 H17        59.7803   67.3082  -15.3318 H           1 M1S       0.0414
     42 H18        60.5348   70.2654  -15.0640 H           1 M1S       0.0631
     43 H19        61.6649   68.9189  -15.2083 H           1 M1S       0.0631
     44 H20        62.7096   66.0956  -11.2736 H           1 M1S       0.2508
     45 H21        59.1660   68.0408   -7.0669 H           1 M1S       0.2502
@<TRIPOS>BOND
     1     1     2   1
     2     1    19   2
     3     1    24   1
     4     2     3  ar
     5     2     7  ar
     6     3     4  ar
     7     3    20   1
     8     4     5  ar
     9     5     6  ar
    10     5    21   1
    11     6     7  ar
    12     6    22   1
    13     7     8   1
    14     8     9   1
    15     9    10   1
    16     9    23   2
    17    10    11   1
    18    11    12   1
    19    12    13   1
    20    13    14   1
    21    14    15   1
    22    15    16   2
    23    16    17   1
    24    17    18   1
    25    18    24   1
    26     4    25   1
    27     8    26   1
    28     8    27   1
    29    10    28   1
    30    10    29   1
    31    11    30   1
    32    11    31   1
    33    12    32   1
    34    12    33   1
    35    13    34   1
    36    13    35   1
    37    14    36   1
    38    14    37   1
    39    15    38   1
    40    16    39   1
    41    17    40   1
    42    17    41   1
    43    18    42   1
    44    18    43   1
    45    20    44   1
    46    21    45   1
@<TRIPOS>SUBSTRUCTURE
     1  M1S      1

