@<TRIPOS>MOLECULE
2iwx_ligand_026
    45    46
SMALL
GAST_HUCK
****
This file was generated by PARSER (from files_GN.cpp)

@<TRIPOS>ATOM
      1 C1         57.4318   73.9195   -7.5633 C.2         1 M1S       0.2450
      2 C2         58.0353   75.2019   -7.5021 C.ar        1 M1S       0.0836
      3 C3         57.1826   76.3359   -7.5122 C.ar        1 M1S       0.0971
      4 C4         57.7171   77.6328   -7.5007 C.ar        1 M1S      -0.0045
      5 C5         59.1051   77.8285   -7.4861 C.ar        1 M1S       0.0932
      6 C6         59.9767   76.7158   -7.4617 C.ar        1 M1S       0.0655
      7 C7         59.4551   75.3876   -7.4530 C.ar        1 M1S      -0.0054
      8 C8         60.3849   74.2073   -7.3723 C.3         1 M1S       0.0540
      9 C9         60.8560   73.6550   -8.6391 C.2         1 M1S       0.1171
     10 C10        60.6331   74.2780   -9.9429 C.3         1 M1S       0.0232
     11 C11        61.1347   73.4730  -11.1758 C.3         1 M1S      -0.0368
     12 C12        60.9234   74.1773  -12.5433 C.3         1 M1S      -0.0494
     13 C13        59.4560   74.4316  -12.9883 C.3         1 M1S      -0.0463
     14 C14        58.5623   73.1618  -13.1262 C.3         1 M1S      -0.0365
     15 C15        57.6827   72.9460  -11.9864 C.2         1 M1S      -0.0986
     16 C16        57.6938   71.8491  -11.2107 C.2         1 M1S      -0.0962
     17 C17        56.7340   71.6088  -10.1440 C.3         1 M1S      -0.0086
     18 C18        57.3721   71.6862   -8.7389 C.3         1 M1S       0.0814
     19 O2         56.3975   73.6209   -6.7440 O.2         1 M1S      -0.3725
     20 O3         55.8304   76.2086   -7.5901 O.3         1 M1S      -0.3313
     21 O4         59.5486   79.1133   -7.4775 O.3         1 M1S      -0.3330
     22 CL1        61.6468   77.0482   -7.4365 Cl          1 M1S      -0.0932
     23 O5         61.4985   72.6137   -8.5657 O.2         1 M1S      -0.3883
     24 O1         57.8523   73.0159   -8.4905 O.3         1 M1S      -0.2800
     25 H1         57.0903   78.4421   -7.5186 H           1 M1S       0.0425
     26 H2         59.8935   73.4069   -6.8136 H           1 M1S       0.0663
     27 H3         61.2593   74.4573   -6.7660 H           1 M1S       0.0663
     28 H4         61.1274   75.2509   -9.9427 H           1 M1S       0.0495
     29 H5         59.5616   74.4438  -10.0622 H           1 M1S       0.0495
     30 H6         60.6457   72.4969  -11.1956 H           1 M1S       0.0290
     31 H7         62.2081   73.2966  -11.0589 H           1 M1S       0.0290
     32 H8         61.4108   73.5729  -13.3113 H           1 M1S       0.0268
     33 H9         61.4450   75.1409  -12.5181 H           1 M1S       0.0268
     34 H10        59.5056   74.9131  -13.9704 H           1 M1S       0.0285
     35 H11        58.9953   75.1604  -12.3183 H           1 M1S       0.0285
     36 H12        59.1873   72.2868  -13.3274 H           1 M1S       0.0388
     37 H13        57.9149   73.2840  -13.9991 H           1 M1S       0.0388
     38 H14        57.0099   73.6535  -11.7988 H           1 M1S       0.0450
     39 H15        58.3849   71.1514  -11.3704 H           1 M1S       0.0451
     40 H16        56.3089   70.6124  -10.2860 H           1 M1S       0.0414
     41 H17        55.9038   72.3213  -10.1814 H           1 M1S       0.0414
     42 H18        58.2131   70.9912   -8.6641 H           1 M1S       0.0631
     43 H19        56.6289   71.3894   -7.9956 H           1 M1S       0.0631
     44 H20        55.4824   76.6662   -6.7957 H           1 M1S       0.2508
     45 H21        60.3189   79.1391   -8.0827 H           1 M1S       0.2502
@<TRIPOS>BOND
     1     1     2   1
     2     1    19   2
     3     1    24   1
     4     2     3  ar
     5     2     7  ar
     6     3     4  ar
     7     3    20   1
     8     4     5  ar
     9     5     6  ar
    10     5    21   1
    11     6     7  ar
    12     6    22   1
    13     7     8   1
    14     8     9   1
    15     9    10   1
    16     9    23   2
    17    10    11   1
    18    11    12   1
    19    12    13   1
    20    13    14   1
    21    14    15   1
    22    15    16   2
    23    16    17   1
    24    17    18   1
    25    18    24   1
    26     4    25   1
    27     8    26   1
    28     8    27   1
    29    10    28   1
    30    10    29   1
    31    11    30   1
    32    11    31   1
    33    12    32   1
    34    12    33   1
    35    13    34   1
    36    13    35   1
    37    14    36   1
    38    14    37   1
    39    15    38   1
    40    16    39   1
    41    17    40   1
    42    17    41   1
    43    18    42   1
    44    18    43   1
    45    20    44   1
    46    21    45   1
@<TRIPOS>SUBSTRUCTURE
     1  M1S      1

