@<TRIPOS>MOLECULE
2j62_ligand_012
    54    56
SMALL
GAST_HUCK
****
This file was generated by PARSER (from files_GN.cpp)

@<TRIPOS>ATOM
      1 CAZ        39.8220   35.4938    8.7525 C.3         1 GSZ      -0.0456
      2 CAN        39.4055   35.4146   10.2473 C.3         1 GSZ       0.0432
      3 CBA        38.5421   34.1540   10.5307 C.3         1 GSZ      -0.0456
      4 CAL        38.7275   36.6337   10.6936 C.2         1 GSZ       0.1811
      5 OAM        39.1615   37.2162   11.6768 O.2         1 GSZ      -0.3966
      6 NAK        37.6231   37.0459   10.0820 N.am        1 GSZ      -0.2638
      7 CAC        36.8008   38.1866   10.3818 C.3         1 GSZ       0.1446
      8 CAB        37.4102   39.5473    9.8893 C.3         1 GSZ       0.1222
      9 OAG        36.4334   40.2814    9.1471 O.3         1 GSZ      -0.3842
     10 CAA        37.9613   40.4829   11.0083 C.3         1 GSZ       0.1176
     11 OAH        39.2445   40.0119   11.4166 O.3         1 GSZ      -0.3858
     12 CAF        37.0180   40.5774   12.2512 C.3         1 GSZ       0.1168
     13 CAI        35.8639   41.6219   12.0804 C.3         1 GSZ       0.0768
     14 OAJ        36.0367   42.7496   12.9353 O.3         1 GSZ      -0.3919
     15 NAE        36.4921   39.2897   12.6104 N.pl3       1 GSZ      -0.2497
     16 CAQ        35.9452   38.9604   13.7919 C.2         1 GSZ       0.0236
     17 CAD        36.3484   38.2253   11.7953 C.2         1 GSZ       0.1393
     18 NAO        35.6968   37.2428   12.4423 N.2         1 GSZ      -0.3317
     19 CAP        35.4315   37.6729   13.6914 C.2         1 GSZ      -0.0178
     20 CAR        34.6605   37.0183   14.7718 C.3         1 GSZ      -0.0191
     21 CAS        33.7349   35.8386   14.3386 C.3         1 GSZ      -0.0133
     22 CAT        34.3018   34.4887   14.6124 C.ar        1 GSZ      -0.0416
     23 CAU        35.2786   33.9230   13.7611 C.ar        1 GSZ      -0.0602
     24 CAV        35.7768   32.6254   14.0011 C.ar        1 GSZ      -0.0686
     25 CAW        35.3051   31.8815   15.0974 C.ar        1 GSZ      -0.0687
     26 CAX        34.3622   32.4474   15.9730 C.ar        1 GSZ      -0.0686
     27 CAY        33.8672   33.7409   15.7348 C.ar        1 GSZ      -0.0602
     28 H1         40.3922   34.6041    8.4701 H           1 GSZ       0.0257
     29 H2         40.4541   36.3671    8.5776 H           1 GSZ       0.0257
     30 H3         38.9465   35.5620    8.1031 H           1 GSZ       0.0257
     31 H4         40.3343   35.2895   10.8170 H           1 GSZ       0.0532
     32 H5         38.2722   34.1024   11.5887 H           1 GSZ       0.0257
     33 H6         39.1015   33.2475   10.2828 H           1 GSZ       0.0257
     34 H7         37.6236   34.1694    9.9395 H           1 GSZ       0.0257
     35 H8         37.3221   36.5147    9.3255 H           1 GSZ       0.1888
     36 H9         35.8956   38.0058    9.7968 H           1 GSZ       0.0820
     37 H10        38.2260   39.3491    9.1860 H           1 GSZ       0.0672
     38 H11        36.2557   39.7353    8.3517 H           1 GSZ       0.2103
     39 H12        38.1322   41.4800   10.5918 H           1 GSZ       0.0654
     40 H13        39.6005   40.6959   12.0242 H           1 GSZ       0.2100
     41 H14        37.6409   40.9067   13.0920 H           1 GSZ       0.0699
     42 H15        34.8928   41.1837   12.3246 H           1 GSZ       0.0589
     43 H16        35.7939   41.9931   11.0558 H           1 GSZ       0.0589
     44 H17        36.6535   43.3497   12.4639 H           1 GSZ       0.2095
     45 H18        35.8652   39.5778   14.6057 H           1 GSZ       0.0663
     46 H19        34.0245   37.7844   15.2225 H           1 GSZ       0.0392
     47 H20        35.3619   36.6978   15.5558 H           1 GSZ       0.0392
     48 H21        33.4733   35.9111   13.2820 H           1 GSZ       0.0442
     49 H22        32.7829   35.9455   14.8699 H           1 GSZ       0.0442
     50 H23        35.6191   34.4390   12.9488 H           1 GSZ       0.0557
     51 H24        36.4638   32.2159   13.3643 H           1 GSZ       0.0599
     52 H25        35.6589   30.9362   15.2663 H           1 GSZ       0.0559
     53 H26        34.0266   31.9099   16.7775 H           1 GSZ       0.0599
     54 H27        33.1764   34.1310   16.3807 H           1 GSZ       0.0557
@<TRIPOS>BOND
     1     1     2   1
     2     2     3   1
     3     2     4   1
     4     4     5   2
     5     4     6  am
     6     6     7   1
     7     7     8   1
     8     7    17   1
     9     8     9   1
    10     8    10   1
    11    10    11   1
    12    10    12   1
    13    12    13   1
    14    12    15   1
    15    13    14   1
    16    15    16   1
    17    15    17   1
    18    16    19   2
    19    17    18   2
    20    18    19   1
    21    19    20   1
    22    20    21   1
    23    21    22   1
    24    22    23  ar
    25    22    27  ar
    26    23    24  ar
    27    24    25  ar
    28    25    26  ar
    29    26    27  ar
    30     1    28   1
    31     1    29   1
    32     1    30   1
    33     2    31   1
    34     3    32   1
    35     3    33   1
    36     3    34   1
    37     6    35   1
    38     7    36   1
    39     8    37   1
    40     9    38   1
    41    10    39   1
    42    11    40   1
    43    12    41   1
    44    13    42   1
    45    13    43   1
    46    14    44   1
    47    16    45   1
    48    20    46   1
    49    20    47   1
    50    21    48   1
    51    21    49   1
    52    23    50   1
    53    24    51   1
    54    25    52   1
    55    26    53   1
    56    27    54   1
@<TRIPOS>SUBSTRUCTURE
     1  GSZ      1

