@<TRIPOS>MOLECULE
2j62_ligand_014
    54    56
SMALL
GAST_HUCK
****
This file was generated by PARSER (from files_GN.cpp)

@<TRIPOS>ATOM
      1 CAZ        31.4165   31.7109   18.0890 C.3         1 GSZ      -0.0456
      2 CAN        30.9290   32.5332   16.8572 C.3         1 GSZ       0.0432
      3 CBA        30.5553   31.5605   15.7001 C.3         1 GSZ      -0.0456
      4 CAL        31.8670   33.5790   16.4337 C.2         1 GSZ       0.1811
      5 OAM        32.8281   33.8507   17.1431 O.2         1 GSZ      -0.3966
      6 NAK        31.6415   34.2811   15.3235 N.am        1 GSZ      -0.2638
      7 CAC        32.4389   35.3406   14.7644 C.3         1 GSZ       0.1446
      8 CAB        33.9397   34.9576   14.5625 C.3         1 GSZ       0.1222
      9 OAG        34.0526   33.8947   13.6152 O.3         1 GSZ      -0.3842
     10 CAA        34.7886   36.1821   14.1263 C.3         1 GSZ       0.1176
     11 OAH        36.1537   35.7772   14.0137 O.3         1 GSZ      -0.3858
     12 CAF        34.6433   37.3981   15.1070 C.3         1 GSZ       0.1168
     13 CAI        35.1669   38.7083   14.4426 C.3         1 GSZ       0.0768
     14 OAJ        36.5039   38.5846   13.9688 O.3         1 GSZ      -0.3919
     15 NAE        33.2895   37.5361   15.6033 N.pl3       1 GSZ      -0.2497
     16 CAQ        32.7722   38.5685   16.2904 C.2         1 GSZ       0.0236
     17 CAD        32.3067   36.6131   15.5116 C.2         1 GSZ       0.1393
     18 NAO        31.1763   37.0785   16.0808 N.2         1 GSZ      -0.3317
     19 CAP        31.4397   38.2948   16.5832 C.2         1 GSZ      -0.0178
     20 CAR        30.4292   39.1426   17.2601 C.3         1 GSZ      -0.0191
     21 CAS        30.7608   40.6608   17.4003 C.3         1 GSZ      -0.0133
     22 CAT        31.4806   41.0982   18.6369 C.ar        1 GSZ      -0.0416
     23 CAU        32.5348   40.3488   19.2092 C.ar        1 GSZ      -0.0602
     24 CAV        33.2275   40.7978   20.3452 C.ar        1 GSZ      -0.0686
     25 CAW        32.8788   42.0237   20.9338 C.ar        1 GSZ      -0.0687
     26 CAX        31.8407   42.7934   20.3824 C.ar        1 GSZ      -0.0686
     27 CAY        31.1477   42.3346   19.2459 C.ar        1 GSZ      -0.0602
     28 H1         30.6626   30.9798   18.3911 H           1 GSZ       0.0257
     29 H2         31.6058   32.3704   18.9408 H           1 GSZ       0.0257
     30 H3         32.3418   31.1767   17.8494 H           1 GSZ       0.0257
     31 H4         30.0107   33.0481   17.1523 H           1 GSZ       0.0532
     32 H5         30.0927   32.0963   14.8692 H           1 GSZ       0.0257
     33 H6         29.8344   30.8168   16.0466 H           1 GSZ       0.0257
     34 H7         31.4436   31.0428   15.3297 H           1 GSZ       0.0257
     35 H8         30.8531   34.0448   14.8073 H           1 GSZ       0.1888
     36 H9         32.0148   35.5389   13.7730 H           1 GSZ       0.0820
     37 H10        34.3650   34.5927   15.4975 H           1 GSZ       0.0672
     38 H11        33.8724   34.2979   12.7400 H           1 GSZ       0.2103
     39 H12        34.4497   36.4759   13.1292 H           1 GSZ       0.0654
     40 H13        36.4283   35.5237   14.9213 H           1 GSZ       0.2100
     41 H14        35.2710   37.2035   15.9829 H           1 GSZ       0.0699
     42 H15        35.1620   39.5281   15.1610 H           1 GSZ       0.0589
     43 H16        34.5234   38.9843   13.6044 H           1 GSZ       0.0589
     44 H17        37.0420   38.4024   14.7671 H           1 GSZ       0.2095
     45 H18        33.2688   39.4227   16.5402 H           1 GSZ       0.0663
     46 H19        30.2217   38.7218   18.2446 H           1 GSZ       0.0392
     47 H20        29.5088   39.0580   16.6767 H           1 GSZ       0.0392
     48 H21        29.8087   41.1998   17.3418 H           1 GSZ       0.0442
     49 H22        31.3439   40.9972   16.5404 H           1 GSZ       0.0442
     50 H23        32.8154   39.4566   18.8137 H           1 GSZ       0.0557
     51 H24        33.9910   40.2400   20.7309 H           1 GSZ       0.0599
     52 H25        33.3783   42.3530   21.7598 H           1 GSZ       0.0559
     53 H26        31.5976   43.6926   20.8013 H           1 GSZ       0.0599
     54 H27        30.4157   42.9278   18.8508 H           1 GSZ       0.0557
@<TRIPOS>BOND
     1     1     2   1
     2     2     3   1
     3     2     4   1
     4     4     5   2
     5     4     6  am
     6     6     7   1
     7     7     8   1
     8     7    17   1
     9     8     9   1
    10     8    10   1
    11    10    11   1
    12    10    12   1
    13    12    13   1
    14    12    15   1
    15    13    14   1
    16    15    16   1
    17    15    17   1
    18    16    19   2
    19    17    18   2
    20    18    19   1
    21    19    20   1
    22    20    21   1
    23    21    22   1
    24    22    23  ar
    25    22    27  ar
    26    23    24  ar
    27    24    25  ar
    28    25    26  ar
    29    26    27  ar
    30     1    28   1
    31     1    29   1
    32     1    30   1
    33     2    31   1
    34     3    32   1
    35     3    33   1
    36     3    34   1
    37     6    35   1
    38     7    36   1
    39     8    37   1
    40     9    38   1
    41    10    39   1
    42    11    40   1
    43    12    41   1
    44    13    42   1
    45    13    43   1
    46    14    44   1
    47    16    45   1
    48    20    46   1
    49    20    47   1
    50    21    48   1
    51    21    49   1
    52    23    50   1
    53    24    51   1
    54    25    52   1
    55    26    53   1
    56    27    54   1
@<TRIPOS>SUBSTRUCTURE
     1  GSZ      1

