@<TRIPOS>MOLECULE
2j62_ligand_005
    54    56
SMALL
GAST_HUCK
****
This file was generated by PARSER (from files_GN.cpp)

@<TRIPOS>ATOM
      1 CAZ        36.9107   40.1706   22.4437 C.3         1 GSZ      -0.0456
      2 CAN        37.0806   41.4736   21.6197 C.3         1 GSZ       0.0432
      3 CBA        37.7775   42.5792   22.4602 C.3         1 GSZ      -0.0456
      4 CAL        35.8101   41.9570   21.0785 C.2         1 GSZ       0.1811
      5 OAM        35.7540   42.2736   19.8959 O.2         1 GSZ      -0.3966
      6 NAK        34.7533   42.0811   21.8731 N.am        1 GSZ      -0.2638
      7 CAC        33.4552   42.5954   21.5253 C.3         1 GSZ       0.1446
      8 CAB        32.6751   42.8301   22.8513 C.3         1 GSZ       0.1222
      9 OAG        33.3052   43.9118   23.5450 O.3         1 GSZ      -0.3842
     10 CAA        31.1687   43.1270   22.6208 C.3         1 GSZ       0.1176
     11 OAH        30.5459   43.2254   23.9051 O.3         1 GSZ      -0.3858
     12 CAF        30.4695   42.0249   21.7508 C.3         1 GSZ       0.1168
     13 CAI        29.1457   42.5747   21.1294 C.3         1 GSZ       0.0768
     14 OAJ        28.1658   41.5521   20.9737 O.3         1 GSZ      -0.3919
     15 NAE        31.3459   41.4813   20.7340 N.pl3       1 GSZ      -0.2497
     16 CAQ        31.0212   40.6088   19.7604 C.2         1 GSZ       0.0236
     17 CAD        32.6784   41.7011   20.6303 C.2         1 GSZ       0.1393
     18 NAO        33.1804   40.9983   19.6008 N.2         1 GSZ      -0.3317
     19 CAP        32.1671   40.3246   19.0272 C.2         1 GSZ      -0.0178
     20 CAR        32.2698   39.3470   17.9216 C.3         1 GSZ      -0.0191
     21 CAS        31.8489   39.8781   16.5201 C.3         1 GSZ      -0.0133
     22 CAT        32.8799   40.6244   15.7486 C.ar        1 GSZ      -0.0416
     23 CAU        34.1275   40.0273   15.4565 C.ar        1 GSZ      -0.0602
     24 CAV        35.0921   40.7073   14.6860 C.ar        1 GSZ      -0.0686
     25 CAW        34.8105   41.9856   14.1645 C.ar        1 GSZ      -0.0687
     26 CAX        33.5621   42.5773   14.4174 C.ar        1 GSZ      -0.0686
     27 CAY        32.6063   41.9060   15.2054 C.ar        1 GSZ      -0.0602
     28 H1         37.8877   39.7288   22.6503 H           1 GSZ       0.0257
     29 H2         36.3132   39.4391   21.8952 H           1 GSZ       0.0257
     30 H3         36.4141   40.3686   23.3998 H           1 GSZ       0.0257
     31 H4         37.7519   41.2355   20.7889 H           1 GSZ       0.0532
     32 H5         37.9869   43.4517   21.8385 H           1 GSZ       0.0257
     33 H6         38.7245   42.2095   22.8567 H           1 GSZ       0.0257
     34 H7         37.1516   42.8895   23.3026 H           1 GSZ       0.0257
     35 H8         34.8905   41.8548   22.8062 H           1 GSZ       0.1888
     36 H9         33.5815   43.5528   21.0140 H           1 GSZ       0.0820
     37 H10        32.7463   41.9299   23.4830 H           1 GSZ       0.0672
     38 H11        32.7311   44.1244   24.3151 H           1 GSZ       0.2103
     39 H12        31.0858   44.0954   22.1288 H           1 GSZ       0.0654
     40 H13        29.5788   43.2271   23.7208 H           1 GSZ       0.2100
     41 H14        30.2038   41.1867   22.4069 H           1 GSZ       0.0699
     42 H15        29.3516   43.0161   20.1507 H           1 GSZ       0.0589
     43 H16        28.7082   43.3457   21.7608 H           1 GSZ       0.0589
     44 H17        27.7720   41.4539   21.8623 H           1 GSZ       0.2095
     45 H18        30.0992   40.2056   19.5950 H           1 GSZ       0.0663
     46 H19        31.6131   38.5026   18.1714 H           1 GSZ       0.0392
     47 H20        33.2850   38.9430   17.8797 H           1 GSZ       0.0392
     48 H21        30.9387   40.4747   16.6401 H           1 GSZ       0.0442
     49 H22        31.5682   39.0128   15.9101 H           1 GSZ       0.0442
     50 H23        34.3364   39.0830   15.7822 H           1 GSZ       0.0557
     51 H24        36.0033   40.2717   14.4954 H           1 GSZ       0.0599
     52 H25        35.5046   42.4761   13.5965 H           1 GSZ       0.0559
     53 H26        33.3509   43.4993   14.0297 H           1 GSZ       0.0599
     54 H27        31.7009   42.3567   15.3664 H           1 GSZ       0.0557
@<TRIPOS>BOND
     1     1     2   1
     2     2     3   1
     3     2     4   1
     4     4     5   2
     5     4     6  am
     6     6     7   1
     7     7     8   1
     8     7    17   1
     9     8     9   1
    10     8    10   1
    11    10    11   1
    12    10    12   1
    13    12    13   1
    14    12    15   1
    15    13    14   1
    16    15    16   1
    17    15    17   1
    18    16    19   2
    19    17    18   2
    20    18    19   1
    21    19    20   1
    22    20    21   1
    23    21    22   1
    24    22    23  ar
    25    22    27  ar
    26    23    24  ar
    27    24    25  ar
    28    25    26  ar
    29    26    27  ar
    30     1    28   1
    31     1    29   1
    32     1    30   1
    33     2    31   1
    34     3    32   1
    35     3    33   1
    36     3    34   1
    37     6    35   1
    38     7    36   1
    39     8    37   1
    40     9    38   1
    41    10    39   1
    42    11    40   1
    43    12    41   1
    44    13    42   1
    45    13    43   1
    46    14    44   1
    47    16    45   1
    48    20    46   1
    49    20    47   1
    50    21    48   1
    51    21    49   1
    52    23    50   1
    53    24    51   1
    54    25    52   1
    55    26    53   1
    56    27    54   1
@<TRIPOS>SUBSTRUCTURE
     1  GSZ      1

