@<TRIPOS>MOLECULE
2j62_ligand_009
    54    56
SMALL
GAST_HUCK
****
This file was generated by PARSER (from files_GN.cpp)

@<TRIPOS>ATOM
      1 CAZ        36.2324   42.0742   11.5235 C.3         1 GSZ      -0.0456
      2 CAN        37.1816   41.6396   10.3763 C.3         1 GSZ       0.0432
      3 CBA        36.4518   41.6323    9.0018 C.3         1 GSZ      -0.0456
      4 CAL        37.8131   40.3558   10.6788 C.2         1 GSZ       0.1811
      5 OAM        38.9913   40.3471   11.0172 O.2         1 GSZ      -0.3966
      6 NAK        37.1182   39.2267   10.6100 N.am        1 GSZ      -0.2638
      7 CAC        37.6165   37.8965   10.8240 C.3         1 GSZ       0.1446
      8 CAB        37.5844   37.1172    9.4805 C.3         1 GSZ       0.1222
      9 OAG        38.5204   37.6864    8.5690 O.3         1 GSZ      -0.3842
     10 CAA        37.9070   35.6108    9.6860 C.3         1 GSZ       0.1176
     11 OAH        37.8449   34.9455    8.4194 O.3         1 GSZ      -0.3858
     12 CAF        36.9674   34.9420   10.7558 C.3         1 GSZ       0.1168
     13 CAI        37.6362   33.6790   11.3934 C.3         1 GSZ       0.0768
     14 OAJ        37.2695   32.4723   10.7318 O.3         1 GSZ      -0.3919
     15 NAE        36.5257   35.8718   11.7757 N.pl3       1 GSZ      -0.2497
     16 CAQ        35.7036   35.6240   12.8132 C.2         1 GSZ       0.0236
     17 CAD        36.7930   37.1936   11.8257 C.2         1 GSZ       0.1393
     18 NAO        36.2241   37.7574   12.9062 N.2         1 GSZ      -0.3317
     19 CAP        35.5406   36.7931   13.5474 C.2         1 GSZ      -0.0178
     20 CAR        34.7345   36.9337   14.7807 C.3         1 GSZ      -0.0191
     21 CAS        35.1557   38.0920   15.7269 C.3         1 GSZ      -0.0133
     22 CAT        34.7181   39.4567   15.3105 C.ar        1 GSZ      -0.0416
     23 CAU        33.3434   39.8017   15.3064 C.ar        1 GSZ      -0.0602
     24 CAV        32.9234   41.1030   14.9721 C.ar        1 GSZ      -0.0686
     25 CAW        33.8792   42.0833   14.6386 C.ar        1 GSZ      -0.0687
     26 CAX        35.2476   41.7585   14.6562 C.ar        1 GSZ      -0.0686
     27 CAY        35.6679   40.4526   14.9792 C.ar        1 GSZ      -0.0602
     28 H1         35.7724   43.0365   11.2954 H           1 GSZ       0.0257
     29 H2         36.8057   42.1747   12.4444 H           1 GSZ       0.0257
     30 H3         35.4398   41.3411   11.6758 H           1 GSZ       0.0257
     31 H4         37.9597   42.4079   10.3054 H           1 GSZ       0.0532
     32 H5         37.1401   41.3391    8.2042 H           1 GSZ       0.0257
     33 H6         36.0748   42.6325    8.7727 H           1 GSZ       0.0257
     34 H7         35.6068   40.9404    9.0067 H           1 GSZ       0.0257
     35 H8         36.1894   39.3088   10.3369 H           1 GSZ       0.1888
     36 H9         38.6396   37.8996   11.2153 H           1 GSZ       0.0820
     37 H10        36.5882   37.2129    9.0420 H           1 GSZ       0.0672
     38 H11        38.1520   37.5137    7.6759 H           1 GSZ       0.2103
     39 H12        38.9467   35.5483   10.0240 H           1 GSZ       0.0654
     40 H13        37.3499   34.1163    8.5719 H           1 GSZ       0.2100
     41 H14        36.0591   34.6115   10.2412 H           1 GSZ       0.0699
     42 H15        37.3276   33.5614   12.4359 H           1 GSZ       0.0589
     43 H16        38.7261   33.7629   11.3646 H           1 GSZ       0.0589
     44 H17        38.0601   32.1960   10.2291 H           1 GSZ       0.2095
     45 H18        35.2731   34.7308   13.0475 H           1 GSZ       0.0663
     46 H19        34.8293   36.0044   15.3423 H           1 GSZ       0.0392
     47 H20        33.6817   37.0342   14.4893 H           1 GSZ       0.0392
     48 H21        36.2393   38.0531   15.8750 H           1 GSZ       0.0442
     49 H22        34.7148   37.9114   16.7111 H           1 GSZ       0.0442
     50 H23        32.6343   39.1104   15.5773 H           1 GSZ       0.0557
     51 H24        31.9283   41.3370   14.9723 H           1 GSZ       0.0599
     52 H25        33.5776   43.0306   14.3989 H           1 GSZ       0.0559
     53 H26        35.9417   42.4844   14.4421 H           1 GSZ       0.0599
     54 H27        36.6684   40.2439   14.9796 H           1 GSZ       0.0557
@<TRIPOS>BOND
     1     1     2   1
     2     2     3   1
     3     2     4   1
     4     4     5   2
     5     4     6  am
     6     6     7   1
     7     7     8   1
     8     7    17   1
     9     8     9   1
    10     8    10   1
    11    10    11   1
    12    10    12   1
    13    12    13   1
    14    12    15   1
    15    13    14   1
    16    15    16   1
    17    15    17   1
    18    16    19   2
    19    17    18   2
    20    18    19   1
    21    19    20   1
    22    20    21   1
    23    21    22   1
    24    22    23  ar
    25    22    27  ar
    26    23    24  ar
    27    24    25  ar
    28    25    26  ar
    29    26    27  ar
    30     1    28   1
    31     1    29   1
    32     1    30   1
    33     2    31   1
    34     3    32   1
    35     3    33   1
    36     3    34   1
    37     6    35   1
    38     7    36   1
    39     8    37   1
    40     9    38   1
    41    10    39   1
    42    11    40   1
    43    12    41   1
    44    13    42   1
    45    13    43   1
    46    14    44   1
    47    16    45   1
    48    20    46   1
    49    20    47   1
    50    21    48   1
    51    21    49   1
    52    23    50   1
    53    24    51   1
    54    25    52   1
    55    26    53   1
    56    27    54   1
@<TRIPOS>SUBSTRUCTURE
     1  GSZ      1

