@<TRIPOS>MOLECULE
2j62_ligand_027
    54    56
SMALL
GAST_HUCK
****
This file was generated by PARSER (from files_GN.cpp)

@<TRIPOS>ATOM
      1 CAZ        33.8029   39.5948   13.9392 C.3         1 GSZ      -0.0456
      2 CAN        33.7904   39.3145   15.4656 C.3         1 GSZ       0.0432
      3 CBA        34.9251   38.3228   15.8555 C.3         1 GSZ      -0.0456
      4 CAL        32.4567   38.8930   15.9141 C.2         1 GSZ       0.1811
      5 OAM        32.1967   37.7083   16.0725 O.2         1 GSZ      -0.3966
      6 NAK        31.5292   39.8179   16.1336 N.am        1 GSZ      -0.2638
      7 CAC        30.1855   39.6072   16.5996 C.3         1 GSZ       0.1446
      8 CAB        29.1974   40.3891   15.6833 C.3         1 GSZ       0.1222
      9 OAG        29.0853   39.7273   14.4233 O.3         1 GSZ      -0.3842
     10 CAA        27.7879   40.5031   16.3213 C.3         1 GSZ       0.1176
     11 OAH        26.9349   41.2696   15.4671 O.3         1 GSZ      -0.3858
     12 CAF        27.8094   41.1068   17.7755 C.3         1 GSZ       0.1168
     13 CAI        26.5399   40.6841   18.5898 C.3         1 GSZ       0.0768
     14 OAJ        25.3734   40.4213   17.8079 O.3         1 GSZ      -0.3919
     15 NAE        29.0263   40.7689   18.4924 N.pl3       1 GSZ      -0.2497
     16 CAQ        29.3296   41.0447   19.7766 C.2         1 GSZ       0.0236
     17 CAD        30.0781   40.0851   17.9904 C.2         1 GSZ       0.1393
     18 NAO        30.9910   39.8581   18.9537 N.2         1 GSZ      -0.3317
     19 CAP        30.5557   40.4502   20.0679 C.2         1 GSZ      -0.0178
     20 CAR        31.2407   40.4141   21.3757 C.3         1 GSZ      -0.0191
     21 CAS        31.8276   41.7874   21.8326 C.3         1 GSZ      -0.0133
     22 CAT        33.2995   41.9048   21.6296 C.ar        1 GSZ      -0.0416
     23 CAU        33.8383   42.0815   20.3360 C.ar        1 GSZ      -0.0602
     24 CAV        35.2284   42.2039   20.1469 C.ar        1 GSZ      -0.0686
     25 CAW        36.0991   42.1425   21.2477 C.ar        1 GSZ      -0.0687
     26 CAX        35.5803   41.9622   22.5434 C.ar        1 GSZ      -0.0686
     27 CAY        34.1879   41.8432   22.7324 C.ar        1 GSZ      -0.0602
     28 H1         34.7717   39.9991   13.6373 H           1 GSZ       0.0257
     29 H2         33.0364   40.3250   13.6717 H           1 GSZ       0.0257
     30 H3         33.6237   38.6781   13.3776 H           1 GSZ       0.0257
     31 H4         34.0249   40.2603   15.9651 H           1 GSZ       0.0532
     32 H5         34.9009   38.1230   16.9268 H           1 GSZ       0.0257
     33 H6         35.9066   38.7397   15.6090 H           1 GSZ       0.0257
     34 H7         34.8089   37.3748   15.3294 H           1 GSZ       0.0257
     35 H8         31.7987   40.7405   16.0128 H           1 GSZ       0.1888
     36 H9         29.9099   38.5433   16.5981 H           1 GSZ       0.0820
     37 H10        29.5736   41.3966   15.5035 H           1 GSZ       0.0672
     38 H11        29.9862   39.3839   14.2244 H           1 GSZ       0.2103
     39 H12        27.3695   39.4958   16.3516 H           1 GSZ       0.0654
     40 H13        27.2888   42.1879   15.4921 H           1 GSZ       0.2100
     41 H14        27.8022   42.1988   17.6813 H           1 GSZ       0.0699
     42 H15        26.2773   41.4645   19.3037 H           1 GSZ       0.0589
     43 H16        26.7442   39.7811   19.1640 H           1 GSZ       0.0589
     44 H17        25.1568   41.2609   17.3467 H           1 GSZ       0.2095
     45 H18        28.7382   41.5526   20.4429 H           1 GSZ       0.0663
     46 H19        32.0265   39.6521   21.3503 H           1 GSZ       0.0392
     47 H20        30.5044   40.0666   22.1079 H           1 GSZ       0.0392
     48 H21        31.5916   41.9088   22.8934 H           1 GSZ       0.0442
     49 H22        31.3358   42.6222   21.3259 H           1 GSZ       0.0442
     50 H23        33.2214   42.1303   19.5208 H           1 GSZ       0.0557
     51 H24        35.6104   42.3414   19.2037 H           1 GSZ       0.0599
     52 H25        37.1097   42.2301   21.1118 H           1 GSZ       0.0559
     53 H26        36.2111   41.9179   23.3470 H           1 GSZ       0.0599
     54 H27        33.8355   41.7065   23.6810 H           1 GSZ       0.0557
@<TRIPOS>BOND
     1     1     2   1
     2     2     3   1
     3     2     4   1
     4     4     5   2
     5     4     6  am
     6     6     7   1
     7     7     8   1
     8     7    17   1
     9     8     9   1
    10     8    10   1
    11    10    11   1
    12    10    12   1
    13    12    13   1
    14    12    15   1
    15    13    14   1
    16    15    16   1
    17    15    17   1
    18    16    19   2
    19    17    18   2
    20    18    19   1
    21    19    20   1
    22    20    21   1
    23    21    22   1
    24    22    23  ar
    25    22    27  ar
    26    23    24  ar
    27    24    25  ar
    28    25    26  ar
    29    26    27  ar
    30     1    28   1
    31     1    29   1
    32     1    30   1
    33     2    31   1
    34     3    32   1
    35     3    33   1
    36     3    34   1
    37     6    35   1
    38     7    36   1
    39     8    37   1
    40     9    38   1
    41    10    39   1
    42    11    40   1
    43    12    41   1
    44    13    42   1
    45    13    43   1
    46    14    44   1
    47    16    45   1
    48    20    46   1
    49    20    47   1
    50    21    48   1
    51    21    49   1
    52    23    50   1
    53    24    51   1
    54    25    52   1
    55    26    53   1
    56    27    54   1
@<TRIPOS>SUBSTRUCTURE
     1  GSZ      1

