@<TRIPOS>MOLECULE
2j62_ligand_029
    54    56
SMALL
GAST_HUCK
****
This file was generated by PARSER (from files_GN.cpp)

@<TRIPOS>ATOM
      1 CAZ        34.0293   39.7247   13.9393 C.3         1 GSZ      -0.0456
      2 CAN        33.0536   40.5814   14.8078 C.3         1 GSZ       0.0432
      3 CBA        33.5358   42.0620   14.8244 C.3         1 GSZ      -0.0456
      4 CAL        32.8172   40.0608   16.1627 C.2         1 GSZ       0.1811
      5 OAM        33.2063   38.9247   16.4487 O.2         1 GSZ      -0.3966
      6 NAK        32.1475   40.7676   17.0757 N.am        1 GSZ      -0.2638
      7 CAC        31.7436   40.3411   18.3950 C.3         1 GSZ       0.1446
      8 CAB        30.2085   40.5590   18.6068 C.3         1 GSZ       0.1222
      9 OAG        29.6604   39.5007   19.3933 O.3         1 GSZ      -0.3842
     10 CAA        29.8689   41.9322   19.2496 C.3         1 GSZ       0.1176
     11 OAH        30.1335   42.9676   18.3040 O.3         1 GSZ      -0.3858
     12 CAF        30.6855   42.2039   20.5606 C.3         1 GSZ       0.1168
     13 CAI        30.1207   41.4366   21.8050 C.3         1 GSZ       0.0768
     14 OAJ        30.0785   42.2482   22.9838 O.3         1 GSZ      -0.3919
     15 NAE        32.0792   41.8777   20.3677 N.pl3       1 GSZ      -0.2497
     16 CAQ        33.1308   42.2441   21.1244 C.2         1 GSZ       0.0236
     17 CAD        32.5566   41.0548   19.4118 C.2         1 GSZ       0.1393
     18 NAO        33.8786   40.8872   19.5652 N.2         1 GSZ      -0.3317
     19 CAP        34.2678   41.6033   20.6289 C.2         1 GSZ      -0.0178
     20 CAR        35.6668   41.5629   21.1158 C.3         1 GSZ      -0.0191
     21 CAS        35.9054   41.9229   22.6163 C.3         1 GSZ      -0.0133
     22 CAT        36.5322   43.2584   22.8105 C.ar        1 GSZ      -0.0416
     23 CAU        37.9184   43.4345   22.5751 C.ar        1 GSZ      -0.0602
     24 CAV        38.5292   44.6861   22.7693 C.ar        1 GSZ      -0.0686
     25 CAW        37.7607   45.7798   23.2161 C.ar        1 GSZ      -0.0687
     26 CAX        36.3885   45.6147   23.4646 C.ar        1 GSZ      -0.0686
     27 CAY        35.7754   44.3733   23.2428 C.ar        1 GSZ      -0.0602
     28 H1         34.1356   40.1518   12.9438 H           1 GSZ       0.0257
     29 H2         33.6506   38.7080   13.8236 H           1 GSZ       0.0257
     30 H3         35.0126   39.6796   14.4047 H           1 GSZ       0.0257
     31 H4         32.0799   40.5642   14.2985 H           1 GSZ       0.0532
     32 H5         32.7782   42.7059   15.2687 H           1 GSZ       0.0257
     33 H6         33.7079   42.4201   13.8104 H           1 GSZ       0.0257
     34 H7         34.4609   42.1493   15.3930 H           1 GSZ       0.0257
     35 H8         31.9015   41.6722   16.8303 H           1 GSZ       0.1888
     36 H9         31.9547   39.2753   18.5305 H           1 GSZ       0.0820
     37 H10        29.6950   40.4834   17.6490 H           1 GSZ       0.0672
     38 H11        30.2849   39.3551   20.1357 H           1 GSZ       0.2103
     39 H12        28.7970   41.9800   19.4509 H           1 GSZ       0.0654
     40 H13        31.0885   43.1748   18.3784 H           1 GSZ       0.2100
     41 H14        30.5971   43.2709   20.7745 H           1 GSZ       0.0699
     42 H15        30.7531   40.5706   22.0394 H           1 GSZ       0.0589
     43 H16        29.1026   41.0616   21.6264 H           1 GSZ       0.0589
     44 H17        29.1225   42.4435   23.1265 H           1 GSZ       0.2095
     45 H18        33.0932   42.8526   21.9422 H           1 GSZ       0.0663
     46 H19        36.2625   42.1985   20.4573 H           1 GSZ       0.0392
     47 H20        36.0295   40.5416   20.9736 H           1 GSZ       0.0392
     48 H21        36.5647   41.1779   23.0742 H           1 GSZ       0.0442
     49 H22        34.9710   41.8558   23.1787 H           1 GSZ       0.0442
     50 H23        38.4948   42.6461   22.2648 H           1 GSZ       0.0557
     51 H24        39.5267   44.8092   22.5888 H           1 GSZ       0.0599
     52 H25        38.1914   46.6889   23.3594 H           1 GSZ       0.0559
     53 H26        35.8355   46.4034   23.8079 H           1 GSZ       0.0599
     54 H27        34.7684   44.2757   23.4098 H           1 GSZ       0.0557
@<TRIPOS>BOND
     1     1     2   1
     2     2     3   1
     3     2     4   1
     4     4     5   2
     5     4     6  am
     6     6     7   1
     7     7     8   1
     8     7    17   1
     9     8     9   1
    10     8    10   1
    11    10    11   1
    12    10    12   1
    13    12    13   1
    14    12    15   1
    15    13    14   1
    16    15    16   1
    17    15    17   1
    18    16    19   2
    19    17    18   2
    20    18    19   1
    21    19    20   1
    22    20    21   1
    23    21    22   1
    24    22    23  ar
    25    22    27  ar
    26    23    24  ar
    27    24    25  ar
    28    25    26  ar
    29    26    27  ar
    30     1    28   1
    31     1    29   1
    32     1    30   1
    33     2    31   1
    34     3    32   1
    35     3    33   1
    36     3    34   1
    37     6    35   1
    38     7    36   1
    39     8    37   1
    40     9    38   1
    41    10    39   1
    42    11    40   1
    43    12    41   1
    44    13    42   1
    45    13    43   1
    46    14    44   1
    47    16    45   1
    48    20    46   1
    49    20    47   1
    50    21    48   1
    51    21    49   1
    52    23    50   1
    53    24    51   1
    54    25    52   1
    55    26    53   1
    56    27    54   1
@<TRIPOS>SUBSTRUCTURE
     1  GSZ      1

