@<TRIPOS>MOLECULE
2j62_ligand_010
    54    56
SMALL
GAST_HUCK
****
This file was generated by PARSER (from files_GN.cpp)

@<TRIPOS>ATOM
      1 CAZ        36.0780   41.2066   14.8543 C.3         1 GSZ      -0.0456
      2 CAN        35.6727   42.1102   13.6557 C.3         1 GSZ       0.0432
      3 CBA        34.1538   42.4446   13.6941 C.3         1 GSZ      -0.0456
      4 CAL        36.0494   41.4896   12.3836 C.2         1 GSZ       0.1811
      5 OAM        35.5914   40.3827   12.1088 O.2         1 GSZ      -0.3966
      6 NAK        36.9528   42.0708   11.5870 N.am        1 GSZ      -0.2638
      7 CAC        37.4959   41.5866   10.3511 C.3         1 GSZ       0.1446
      8 CAB        36.6674   42.0633    9.1192 C.3         1 GSZ       0.1222
      9 OAG        36.7393   43.4815    8.9798 O.3         1 GSZ      -0.3842
     10 CAA        37.1954   41.4062    7.8096 C.3         1 GSZ       0.1176
     11 OAH        36.4135   41.8388    6.6904 O.3         1 GSZ      -0.3858
     12 CAF        37.1836   39.8423    7.8828 C.3         1 GSZ       0.1168
     13 CAI        38.0791   39.2271    6.7565 C.3         1 GSZ       0.0768
     14 OAJ        37.4643   38.1021    6.1325 O.3         1 GSZ      -0.3919
     15 NAE        37.5393   39.3573    9.2033 N.pl3       1 GSZ      -0.2497
     16 CAQ        37.6943   38.0782    9.5880 C.2         1 GSZ       0.0236
     17 CAD        37.6961   40.1188   10.3168 C.2         1 GSZ       0.1393
     18 NAO        37.9902   39.3438   11.3703 N.2         1 GSZ      -0.3317
     19 CAP        37.9869   38.0705   10.9489 C.2         1 GSZ      -0.0178
     20 CAR        38.2535   36.8820   11.7840 C.3         1 GSZ      -0.0191
     21 CAS        37.1022   35.8357   11.8304 C.3         1 GSZ      -0.0133
     22 CAT        36.0894   36.0661   12.9026 C.ar        1 GSZ      -0.0416
     23 CAU        35.2943   37.2410   12.9026 C.ar        1 GSZ      -0.0602
     24 CAV        34.3256   37.4508   13.9078 C.ar        1 GSZ      -0.0686
     25 CAW        34.1176   36.4880   14.9054 C.ar        1 GSZ      -0.0687
     26 CAX        34.8821   35.3100   14.9094 C.ar        1 GSZ      -0.0686
     27 CAY        35.8637   35.1071   13.9180 C.ar        1 GSZ      -0.0602
     28 H1         35.8199   41.6940   15.7975 H           1 GSZ       0.0257
     29 H2         37.1549   41.0245   14.8499 H           1 GSZ       0.0257
     30 H3         35.5666   40.2423   14.8227 H           1 GSZ       0.0257
     31 H4         36.2100   43.0656   13.7840 H           1 GSZ       0.0532
     32 H5         33.9002   43.1347   12.8876 H           1 GSZ       0.0257
     33 H6         33.8954   42.9095   14.6475 H           1 GSZ       0.0257
     34 H7         33.5468   41.5420   13.5857 H           1 GSZ       0.0257
     35 H8         37.2596   42.9497   11.8502 H           1 GSZ       0.1888
     36 H9         38.4928   42.0344   10.2686 H           1 GSZ       0.0820
     37 H10        35.6187   41.7897    9.2566 H           1 GSZ       0.0672
     38 H11        36.8054   43.8513    9.8841 H           1 GSZ       0.2103
     39 H12        38.2212   41.7557    7.6501 H           1 GSZ       0.0654
     40 H13        36.5781   42.8006    6.6069 H           1 GSZ       0.2100
     41 H14        36.1475   39.5234    7.7104 H           1 GSZ       0.0699
     42 H15        39.0476   38.9243    7.1567 H           1 GSZ       0.0589
     43 H16        38.2646   39.9472    5.9559 H           1 GSZ       0.0589
     44 H17        37.1808   37.4938    6.8451 H           1 GSZ       0.2095
     45 H18        37.6229   37.2519    8.9939 H           1 GSZ       0.0663
     46 H19        38.5048   37.2056   12.8021 H           1 GSZ       0.0392
     47 H20        39.1435   36.4072   11.3677 H           1 GSZ       0.0392
     48 H21        37.5590   34.8513   11.9620 H           1 GSZ       0.0442
     49 H22        36.5781   35.7965   10.8736 H           1 GSZ       0.0442
     50 H23        35.4132   37.9552   12.1710 H           1 GSZ       0.0557
     51 H24        33.7638   38.3051   13.8929 H           1 GSZ       0.0599
     52 H25        33.4069   36.6349   15.6208 H           1 GSZ       0.0559
     53 H26        34.7317   34.5984   15.6258 H           1 GSZ       0.0599
     54 H27        36.4196   34.2417   13.9460 H           1 GSZ       0.0557
@<TRIPOS>BOND
     1     1     2   1
     2     2     3   1
     3     2     4   1
     4     4     5   2
     5     4     6  am
     6     6     7   1
     7     7     8   1
     8     7    17   1
     9     8     9   1
    10     8    10   1
    11    10    11   1
    12    10    12   1
    13    12    13   1
    14    12    15   1
    15    13    14   1
    16    15    16   1
    17    15    17   1
    18    16    19   2
    19    17    18   2
    20    18    19   1
    21    19    20   1
    22    20    21   1
    23    21    22   1
    24    22    23  ar
    25    22    27  ar
    26    23    24  ar
    27    24    25  ar
    28    25    26  ar
    29    26    27  ar
    30     1    28   1
    31     1    29   1
    32     1    30   1
    33     2    31   1
    34     3    32   1
    35     3    33   1
    36     3    34   1
    37     6    35   1
    38     7    36   1
    39     8    37   1
    40     9    38   1
    41    10    39   1
    42    11    40   1
    43    12    41   1
    44    13    42   1
    45    13    43   1
    46    14    44   1
    47    16    45   1
    48    20    46   1
    49    20    47   1
    50    21    48   1
    51    21    49   1
    52    23    50   1
    53    24    51   1
    54    25    52   1
    55    26    53   1
    56    27    54   1
@<TRIPOS>SUBSTRUCTURE
     1  GSZ      1

