@<TRIPOS>MOLECULE
2j62_ligand_002
    54    56
SMALL
GAST_HUCK
****
This file was generated by PARSER (from files_GN.cpp)

@<TRIPOS>ATOM
      1 CAZ        31.8382   41.8161   16.0268 C.3         1 GSZ      -0.0456
      2 CAN        31.5698   40.3924   15.4629 C.3         1 GSZ       0.0432
      3 CBA        30.3857   39.7176   16.2185 C.3         1 GSZ      -0.0456
      4 CAL        32.7930   39.5869   15.4074 C.2         1 GSZ       0.1811
      5 OAM        33.0264   38.7464   16.2883 O.2         1 GSZ      -0.3966
      6 NAK        33.6733   39.7771   14.4118 N.am        1 GSZ      -0.2638
      7 CAC        34.8186   38.9781   14.0242 C.3         1 GSZ       0.1446
      8 CAB        35.6870   38.4203   15.2091 C.3         1 GSZ       0.1222
      9 OAG        34.9970   37.3092   15.7887 O.3         1 GSZ      -0.3842
     10 CAA        37.1163   37.9603   14.7766 C.3         1 GSZ       0.1176
     11 OAH        37.9030   37.6165   15.9285 O.3         1 GSZ      -0.3858
     12 CAF        37.8924   39.0629   13.9760 C.3         1 GSZ       0.1168
     13 CAI        39.0986   38.3935   13.2331 C.3         1 GSZ       0.0768
     14 OAJ        39.8444   39.2828   12.4104 O.3         1 GSZ      -0.3919
     15 NAE        37.0256   39.8305   13.1193 N.pl3       1 GSZ      -0.2497
     16 CAQ        37.3971   40.7945   12.2550 C.2         1 GSZ       0.0236
     17 CAD        35.6715   39.7868   13.1020 C.2         1 GSZ       0.1393
     18 NAO        35.2095   40.6468   12.1693 N.2         1 GSZ      -0.3317
     19 CAP        36.2632   41.2764   11.6171 C.2         1 GSZ      -0.0178
     20 CAR        36.2148   42.3422   10.6009 C.3         1 GSZ      -0.0191
     21 CAS        35.8589   41.8350    9.1724 C.3         1 GSZ      -0.0133
     22 CAT        37.0308   41.5969    8.2851 C.ar        1 GSZ      -0.0416
     23 CAU        37.7408   42.6941    7.7383 C.ar        1 GSZ      -0.0602
     24 CAV        38.7974   42.4920    6.8325 C.ar        1 GSZ      -0.0686
     25 CAW        39.1631   41.1845    6.4604 C.ar        1 GSZ      -0.0687
     26 CAX        38.4791   40.0862    7.0023 C.ar        1 GSZ      -0.0686
     27 CAY        37.4160   40.2884    7.9072 C.ar        1 GSZ      -0.0602
     28 H1         30.9209   42.4068   15.9982 H           1 GSZ       0.0257
     29 H2         32.5925   42.3311   15.4247 H           1 GSZ       0.0257
     30 H3         32.1870   41.7529   17.0609 H           1 GSZ       0.0257
     31 H4         31.2245   40.5098   14.4330 H           1 GSZ       0.0532
     32 H5         30.1750   38.7320   15.7933 H           1 GSZ       0.0257
     33 H6         29.4835   40.3191   16.1224 H           1 GSZ       0.0257
     34 H7         30.6085   39.6002   17.2803 H           1 GSZ       0.0257
     35 H8         33.4208   40.4717   13.7842 H           1 GSZ       0.1888
     36 H9         34.4428   38.1334   13.4378 H           1 GSZ       0.0820
     37 H10        35.7817   39.1900   15.9793 H           1 GSZ       0.0672
     38 H11        35.6830   36.7177   16.2167 H           1 GSZ       0.2103
     39 H12        36.9910   37.0683   14.1492 H           1 GSZ       0.0654
     40 H13        37.5104   36.7910   16.2748 H           1 GSZ       0.2100
     41 H14        38.2985   39.7711   14.7002 H           1 GSZ       0.0699
     42 H15        38.7432   37.5767   12.5989 H           1 GSZ       0.0589
     43 H16        39.7960   37.9787   13.9660 H           1 GSZ       0.0589
     44 H17        40.1340   40.0107   13.0012 H           1 GSZ       0.2095
     45 H18        38.3434   41.1361   12.0881 H           1 GSZ       0.0663
     46 H19        37.1705   42.8738   10.5845 H           1 GSZ       0.0392
     47 H20        35.4662   43.0650   10.9296 H           1 GSZ       0.0392
     48 H21        35.2324   42.5876    8.6965 H           1 GSZ       0.0442
     49 H22        35.2416   40.9365    9.2483 H           1 GSZ       0.0442
     50 H23        37.4763   43.6523    7.9826 H           1 GSZ       0.0557
     51 H24        39.2935   43.2919    6.4332 H           1 GSZ       0.0599
     52 H25        39.9266   41.0385    5.7940 H           1 GSZ       0.0559
     53 H26        38.7464   39.1356    6.7340 H           1 GSZ       0.0599
     54 H27        36.9243   39.4749    8.2803 H           1 GSZ       0.0557
@<TRIPOS>BOND
     1     1     2   1
     2     2     3   1
     3     2     4   1
     4     4     5   2
     5     4     6  am
     6     6     7   1
     7     7     8   1
     8     7    17   1
     9     8     9   1
    10     8    10   1
    11    10    11   1
    12    10    12   1
    13    12    13   1
    14    12    15   1
    15    13    14   1
    16    15    16   1
    17    15    17   1
    18    16    19   2
    19    17    18   2
    20    18    19   1
    21    19    20   1
    22    20    21   1
    23    21    22   1
    24    22    23  ar
    25    22    27  ar
    26    23    24  ar
    27    24    25  ar
    28    25    26  ar
    29    26    27  ar
    30     1    28   1
    31     1    29   1
    32     1    30   1
    33     2    31   1
    34     3    32   1
    35     3    33   1
    36     3    34   1
    37     6    35   1
    38     7    36   1
    39     8    37   1
    40     9    38   1
    41    10    39   1
    42    11    40   1
    43    12    41   1
    44    13    42   1
    45    13    43   1
    46    14    44   1
    47    16    45   1
    48    20    46   1
    49    20    47   1
    50    21    48   1
    51    21    49   1
    52    23    50   1
    53    24    51   1
    54    25    52   1
    55    26    53   1
    56    27    54   1
@<TRIPOS>SUBSTRUCTURE
     1  GSZ      1

