@<TRIPOS>MOLECULE
2j62_ligand_006
    54    56
SMALL
GAST_HUCK
****
This file was generated by PARSER (from files_GN.cpp)

@<TRIPOS>ATOM
      1 CAZ        30.5647   40.8912   15.2072 C.3         1 GSZ      -0.0456
      2 CAN        30.6377   39.8678   16.3854 C.3         1 GSZ       0.0432
      3 CBA        29.5784   38.7476   16.1677 C.3         1 GSZ      -0.0456
      4 CAL        30.5254   40.4709   17.7195 C.2         1 GSZ       0.1811
      5 OAM        30.2898   41.6744   17.8318 O.2         1 GSZ      -0.3966
      6 NAK        30.6518   39.7195   18.8108 N.am        1 GSZ      -0.2638
      7 CAC        30.5816   40.0886   20.2052 C.3         1 GSZ       0.1446
      8 CAB        29.2545   40.7956   20.6758 C.3         1 GSZ       0.1222
      9 OAG        28.7666   40.1296   21.8469 O.3         1 GSZ      -0.3842
     10 CAA        29.3573   42.3316   20.9821 C.3         1 GSZ       0.1176
     11 OAH        29.1805   43.0898   19.7835 O.3         1 GSZ      -0.3858
     12 CAF        30.6849   42.7844   21.6879 C.3         1 GSZ       0.1168
     13 CAI        30.6268   42.7962   23.2516 C.3         1 GSZ       0.0768
     14 OAJ        29.8215   41.7655   23.8139 O.3         1 GSZ      -0.3919
     15 NAE        31.8182   42.0259   21.2257 N.pl3       1 GSZ      -0.2497
     16 CAQ        33.1082   42.3648   21.3972 C.2         1 GSZ       0.0236
     17 CAD        31.8000   40.8136   20.6366 C.2         1 GSZ       0.1393
     18 NAO        33.0568   40.3357   20.5502 N.2         1 GSZ      -0.3317
     19 CAP        33.8885   41.2752   21.0371 C.2         1 GSZ      -0.0178
     20 CAR        35.3493   41.1277   21.2242 C.3         1 GSZ      -0.0191
     21 CAS        35.8730   41.4785   22.6559 C.3         1 GSZ      -0.0133
     22 CAT        36.5168   42.8227   22.7570 C.ar        1 GSZ      -0.0416
     23 CAU        37.8915   42.9899   22.4667 C.ar        1 GSZ      -0.0602
     24 CAV        38.5045   44.2570   22.5679 C.ar        1 GSZ      -0.0686
     25 CAW        37.7493   45.3741   22.9617 C.ar        1 GSZ      -0.0687
     26 CAX        36.3902   45.2231   23.2724 C.ar        1 GSZ      -0.0686
     27 CAY        35.7767   43.9585   23.1612 C.ar        1 GSZ      -0.0602
     28 H1         30.7265   40.3870   14.2524 H           1 GSZ       0.0257
     29 H2         31.3362   41.6610   15.3161 H           1 GSZ       0.0257
     30 H3         29.5865   41.3813   15.1811 H           1 GSZ       0.0257
     31 H4         31.6280   39.4026   16.3278 H           1 GSZ       0.0532
     32 H5         29.7473   37.9259   16.8658 H           1 GSZ       0.0257
     33 H6         29.6517   38.3436   15.1565 H           1 GSZ       0.0257
     34 H7         28.5682   39.1386   16.3139 H           1 GSZ       0.0257
     35 H8         30.8305   38.7783   18.6490 H           1 GSZ       0.1888
     36 H9         30.6265   39.1230   20.7221 H           1 GSZ       0.0820
     37 H10        28.4795   40.6382   19.9218 H           1 GSZ       0.0672
     38 H11        28.0178   40.6727   22.1797 H           1 GSZ       0.2103
     39 H12        28.5057   42.6195   21.5978 H           1 GSZ       0.0654
     40 H13        29.9995   42.9512   19.2679 H           1 GSZ       0.2100
     41 H14        30.8650   43.8250   21.3964 H           1 GSZ       0.0699
     42 H15        30.2345   43.7562   23.5939 H           1 GSZ       0.0589
     43 H16        31.6284   42.6911   23.6746 H           1 GSZ       0.0589
     44 H17        28.9044   42.0874   23.6886 H           1 GSZ       0.2095
     45 H18        33.4501   43.2379   21.8062 H           1 GSZ       0.0663
     46 H19        35.8618   41.7221   20.4628 H           1 GSZ       0.0392
     47 H20        35.5898   40.0807   21.0351 H           1 GSZ       0.0392
     48 H21        36.6133   40.7335   22.9621 H           1 GSZ       0.0442
     49 H22        35.0609   41.3909   23.3833 H           1 GSZ       0.0442
     50 H23        38.4583   42.1869   22.1843 H           1 GSZ       0.0557
     51 H24        39.4916   44.3731   22.3401 H           1 GSZ       0.0599
     52 H25        38.1826   46.2980   23.0129 H           1 GSZ       0.0559
     53 H26        35.8422   46.0281   23.5874 H           1 GSZ       0.0599
     54 H27        34.7849   43.8802   23.3964 H           1 GSZ       0.0557
@<TRIPOS>BOND
     1     1     2   1
     2     2     3   1
     3     2     4   1
     4     4     5   2
     5     4     6  am
     6     6     7   1
     7     7     8   1
     8     7    17   1
     9     8     9   1
    10     8    10   1
    11    10    11   1
    12    10    12   1
    13    12    13   1
    14    12    15   1
    15    13    14   1
    16    15    16   1
    17    15    17   1
    18    16    19   2
    19    17    18   2
    20    18    19   1
    21    19    20   1
    22    20    21   1
    23    21    22   1
    24    22    23  ar
    25    22    27  ar
    26    23    24  ar
    27    24    25  ar
    28    25    26  ar
    29    26    27  ar
    30     1    28   1
    31     1    29   1
    32     1    30   1
    33     2    31   1
    34     3    32   1
    35     3    33   1
    36     3    34   1
    37     6    35   1
    38     7    36   1
    39     8    37   1
    40     9    38   1
    41    10    39   1
    42    11    40   1
    43    12    41   1
    44    13    42   1
    45    13    43   1
    46    14    44   1
    47    16    45   1
    48    20    46   1
    49    20    47   1
    50    21    48   1
    51    21    49   1
    52    23    50   1
    53    24    51   1
    54    25    52   1
    55    26    53   1
    56    27    54   1
@<TRIPOS>SUBSTRUCTURE
     1  GSZ      1

