@<TRIPOS>MOLECULE
2j62_ligand_013
    54    56
SMALL
GAST_HUCK
****
This file was generated by PARSER (from files_GN.cpp)

@<TRIPOS>ATOM
      1 CAZ        28.7700   38.8249   15.5875 C.3         1 GSZ      -0.0456
      2 CAN        28.9424   40.3658   15.6060 C.3         1 GSZ       0.0432
      3 CBA        28.4573   41.0035   14.2751 C.3         1 GSZ      -0.0456
      4 CAL        30.3089   40.7860   15.9125 C.2         1 GSZ       0.1811
      5 OAM        30.5219   41.8307   16.5256 O.2         1 GSZ      -0.3966
      6 NAK        31.3439   40.0766   15.4747 N.am        1 GSZ      -0.2638
      7 CAC        32.7461   40.4013   15.6248 C.3         1 GSZ       0.1446
      8 CAB        33.1468   41.5662   14.6647 C.3         1 GSZ       0.1222
      9 OAG        32.4795   42.7732   15.0411 O.3         1 GSZ      -0.3842
     10 CAA        34.6892   41.7977   14.6371 C.3         1 GSZ       0.1176
     11 OAH        34.9796   42.8206   13.6727 O.3         1 GSZ      -0.3858
     12 CAF        35.4831   40.4960   14.2845 C.3         1 GSZ       0.1168
     13 CAI        36.9850   40.5721   14.7185 C.3         1 GSZ       0.0768
     14 OAJ        37.3510   41.7531   15.4248 O.3         1 GSZ      -0.3919
     15 NAE        34.8331   39.3005   14.7735 N.pl3       1 GSZ      -0.2497
     16 CAQ        35.2714   38.0403   14.6108 C.2         1 GSZ       0.0236
     17 CAD        33.6127   39.2227   15.3601 C.2         1 GSZ       0.1393
     18 NAO        33.2924   37.9331   15.5771 N.2         1 GSZ      -0.3317
     19 CAP        34.3047   37.1788   15.1110 C.2         1 GSZ      -0.0178
     20 CAR        34.3070   35.6963   15.0449 C.3         1 GSZ      -0.0191
     21 CAS        33.4193   35.1806   13.8707 C.3         1 GSZ      -0.0133
     22 CAT        32.4324   34.1201   14.1995 C.ar        1 GSZ      -0.0416
     23 CAU        31.6579   34.2006   15.3812 C.ar        1 GSZ      -0.0602
     24 CAV        30.6462   33.2547   15.6484 C.ar        1 GSZ      -0.0686
     25 CAW        30.3713   32.2326   14.7170 C.ar        1 GSZ      -0.0687
     26 CAX        31.1148   32.1586   13.5254 C.ar        1 GSZ      -0.0686
     27 CAY        32.1348   33.0914   13.2681 C.ar        1 GSZ      -0.0602
     28 H1         27.6986   38.5806   15.4989 H           1 GSZ       0.0257
     29 H2         29.1572   38.3847   16.5127 H           1 GSZ       0.0257
     30 H3         29.2934   38.3827   14.7344 H           1 GSZ       0.0257
     31 H4         28.2914   40.7493   16.3966 H           1 GSZ       0.0532
     32 H5         28.4862   42.0959   14.3477 H           1 GSZ       0.0257
     33 H6         27.4257   40.7018   14.0718 H           1 GSZ       0.0257
     34 H7         29.0881   40.6816   13.4357 H           1 GSZ       0.0257
     35 H8         31.1615   39.2491   14.9948 H           1 GSZ       0.1888
     36 H9         32.9551   40.7009   16.6675 H           1 GSZ       0.0820
     37 H10        32.8103   41.2998   13.6515 H           1 GSZ       0.0672
     38 H11        32.3017   42.6861   16.0019 H           1 GSZ       0.2103
     39 H12        34.9771   42.1618   15.6236 H           1 GSZ       0.0654
     40 H13        34.1672   43.3757   13.6228 H           1 GSZ       0.2100
     41 H14        35.4567   40.4042   13.1965 H           1 GSZ       0.0699
     42 H15        37.6124   40.5119   13.8214 H           1 GSZ       0.0589
     43 H16        37.2426   39.7186   15.3530 H           1 GSZ       0.0589
     44 H17        38.3278   41.6804   15.5184 H           1 GSZ       0.2095
     45 H18        36.1356   37.7533   14.1475 H           1 GSZ       0.0663
     46 H19        33.9517   35.2939   16.0034 H           1 GSZ       0.0392
     47 H20        35.3447   35.3529   14.8890 H           1 GSZ       0.0392
     48 H21        34.0815   34.8392   13.0748 H           1 GSZ       0.0442
     49 H22        32.8375   36.0020   13.4418 H           1 GSZ       0.0442
     50 H23        31.8255   34.9516   16.0577 H           1 GSZ       0.0557
     51 H24        30.1023   33.3137   16.5134 H           1 GSZ       0.0599
     52 H25        29.6261   31.5544   14.9002 H           1 GSZ       0.0559
     53 H26        30.8962   31.4311   12.8326 H           1 GSZ       0.0599
     54 H27        32.6449   33.0292   12.3821 H           1 GSZ       0.0557
@<TRIPOS>BOND
     1     1     2   1
     2     2     3   1
     3     2     4   1
     4     4     5   2
     5     4     6  am
     6     6     7   1
     7     7     8   1
     8     7    17   1
     9     8     9   1
    10     8    10   1
    11    10    11   1
    12    10    12   1
    13    12    13   1
    14    12    15   1
    15    13    14   1
    16    15    16   1
    17    15    17   1
    18    16    19   2
    19    17    18   2
    20    18    19   1
    21    19    20   1
    22    20    21   1
    23    21    22   1
    24    22    23  ar
    25    22    27  ar
    26    23    24  ar
    27    24    25  ar
    28    25    26  ar
    29    26    27  ar
    30     1    28   1
    31     1    29   1
    32     1    30   1
    33     2    31   1
    34     3    32   1
    35     3    33   1
    36     3    34   1
    37     6    35   1
    38     7    36   1
    39     8    37   1
    40     9    38   1
    41    10    39   1
    42    11    40   1
    43    12    41   1
    44    13    42   1
    45    13    43   1
    46    14    44   1
    47    16    45   1
    48    20    46   1
    49    20    47   1
    50    21    48   1
    51    21    49   1
    52    23    50   1
    53    24    51   1
    54    25    52   1
    55    26    53   1
    56    27    54   1
@<TRIPOS>SUBSTRUCTURE
     1  GSZ      1

