@<TRIPOS>MOLECULE
2j62_ligand_037
    54    56
SMALL
GAST_HUCK
****
This file was generated by PARSER (from files_GN.cpp)

@<TRIPOS>ATOM
      1 CAZ        35.2704   32.1889   14.6084 C.3         1 GSZ      -0.0456
      2 CAN        35.7303   33.5846   14.0936 C.3         1 GSZ       0.0432
      3 CBA        34.7713   34.6910   14.6135 C.3         1 GSZ      -0.0456
      4 CAL        35.9113   33.6671   12.6412 C.2         1 GSZ       0.1811
      5 OAM        35.4835   32.7831   11.9075 O.2         1 GSZ      -0.3966
      6 NAK        36.5690   34.7052   12.1317 N.am        1 GSZ      -0.2638
      7 CAC        36.9142   34.9261   10.7532 C.3         1 GSZ       0.1446
      8 CAB        38.2193   34.1571   10.3714 C.3         1 GSZ       0.1222
      9 OAG        38.0211   32.7420   10.4073 O.3         1 GSZ      -0.3842
     10 CAA        38.6895   34.5662    8.9482 C.3         1 GSZ       0.1176
     11 OAH        39.8613   33.8306    8.5896 O.3         1 GSZ      -0.3858
     12 CAF        38.9802   36.1033    8.8597 C.3         1 GSZ       0.1168
     13 CAI        39.0804   36.5346    7.3636 C.3         1 GSZ       0.0768
     14 OAJ        39.6288   37.8383    7.2123 O.3         1 GSZ      -0.3919
     15 NAE        38.0209   36.8777    9.6232 N.pl3       1 GSZ      -0.2497
     16 CAQ        37.9310   38.2180    9.7049 C.2         1 GSZ       0.0236
     17 CAD        37.1025   36.3758   10.4850 C.2         1 GSZ       0.1393
     18 NAO        36.4124   37.3796   11.0613 N.2         1 GSZ      -0.3317
     19 CAP        36.9101   38.5347   10.5899 C.2         1 GSZ      -0.0178
     20 CAR        36.5048   39.8988   10.9952 C.3         1 GSZ      -0.0191
     21 CAS        37.5097   40.5569   11.9777 C.3         1 GSZ      -0.0133
     22 CAT        37.5460   39.8352   13.2783 C.ar        1 GSZ      -0.0416
     23 CAU        38.5838   38.9209   13.5751 C.ar        1 GSZ      -0.0602
     24 CAV        38.5675   38.1898   14.7771 C.ar        1 GSZ      -0.0686
     25 CAW        37.5186   38.3627   15.6974 C.ar        1 GSZ      -0.0687
     26 CAX        36.4738   39.2572   15.4058 C.ar        1 GSZ      -0.0686
     27 CAY        36.4876   39.9886   14.2054 C.ar        1 GSZ      -0.0602
     28 H1         35.2172   32.1821   15.6993 H           1 GSZ       0.0257
     29 H2         35.9815   31.4197   14.3006 H           1 GSZ       0.0257
     30 H3         34.2856   31.9304   14.2134 H           1 GSZ       0.0257
     31 H4         36.7083   33.7658   14.5487 H           1 GSZ       0.0532
     32 H5         35.1584   35.6827   14.3705 H           1 GSZ       0.0257
     33 H6         34.6759   34.6292   15.7007 H           1 GSZ       0.0257
     34 H7         33.7785   34.5828   14.1695 H           1 GSZ       0.0257
     35 H8         36.8641   35.3793   12.7632 H           1 GSZ       0.1888
     36 H9         36.0937   34.5965   10.1074 H           1 GSZ       0.0820
     37 H10        39.0175   34.4031   11.0808 H           1 GSZ       0.0672
     38 H11        38.5329   32.4146   11.1796 H           1 GSZ       0.2103
     39 H12        37.8970   34.3032    8.2395 H           1 GSZ       0.0654
     40 H13        39.5805   32.8918    8.5543 H           1 GSZ       0.2100
     41 H14        39.9576   36.2782    9.3218 H           1 GSZ       0.0699
     42 H15        38.0926   36.5135    6.8988 H           1 GSZ       0.0589
     43 H16        39.7381   35.8541    6.8173 H           1 GSZ       0.0589
     44 H17        39.6047   38.0163    6.2463 H           1 GSZ       0.2095
     45 H18        38.5054   38.9046    9.2144 H           1 GSZ       0.0663
     46 H19        35.5213   39.8583   11.4683 H           1 GSZ       0.0392
     47 H20        36.4101   40.5206   10.1011 H           1 GSZ       0.0392
     48 H21        37.2169   41.5968   12.1529 H           1 GSZ       0.0442
     49 H22        38.5016   40.5858   11.5165 H           1 GSZ       0.0442
     50 H23        39.3487   38.7704   12.9121 H           1 GSZ       0.0557
     51 H24        39.3192   37.5292   14.9799 H           1 GSZ       0.0599
     52 H25        37.5114   37.8356   16.5737 H           1 GSZ       0.0559
     53 H26        35.7002   39.3706   16.0628 H           1 GSZ       0.0599
     54 H27        35.7123   40.6262   14.0054 H           1 GSZ       0.0557
@<TRIPOS>BOND
     1     1     2   1
     2     2     3   1
     3     2     4   1
     4     4     5   2
     5     4     6  am
     6     6     7   1
     7     7     8   1
     8     7    17   1
     9     8     9   1
    10     8    10   1
    11    10    11   1
    12    10    12   1
    13    12    13   1
    14    12    15   1
    15    13    14   1
    16    15    16   1
    17    15    17   1
    18    16    19   2
    19    17    18   2
    20    18    19   1
    21    19    20   1
    22    20    21   1
    23    21    22   1
    24    22    23  ar
    25    22    27  ar
    26    23    24  ar
    27    24    25  ar
    28    25    26  ar
    29    26    27  ar
    30     1    28   1
    31     1    29   1
    32     1    30   1
    33     2    31   1
    34     3    32   1
    35     3    33   1
    36     3    34   1
    37     6    35   1
    38     7    36   1
    39     8    37   1
    40     9    38   1
    41    10    39   1
    42    11    40   1
    43    12    41   1
    44    13    42   1
    45    13    43   1
    46    14    44   1
    47    16    45   1
    48    20    46   1
    49    20    47   1
    50    21    48   1
    51    21    49   1
    52    23    50   1
    53    24    51   1
    54    25    52   1
    55    26    53   1
    56    27    54   1
@<TRIPOS>SUBSTRUCTURE
     1  GSZ      1

