@<TRIPOS>MOLECULE
2j62_ligand_057
    54    56
SMALL
GAST_HUCK
****
This file was generated by PARSER (from files_GN.cpp)

@<TRIPOS>ATOM
      1 CAZ        31.3343   41.5022   16.0144 C.3         1 GSZ      -0.0456
      2 CAN        32.3932   40.6001   16.7029 C.3         1 GSZ       0.0432
      3 CBA        32.6560   39.2980   15.8937 C.3         1 GSZ      -0.0456
      4 CAL        32.0289   40.3649   18.1006 C.2         1 GSZ       0.1811
      5 OAM        31.4359   39.3372   18.4097 O.2         1 GSZ      -0.3966
      6 NAK        32.2884   41.3032   19.0060 N.am        1 GSZ      -0.2638
      7 CAC        31.9956   41.2574   20.4120 C.3         1 GSZ       0.1446
      8 CAB        31.0366   42.4266   20.8218 C.3         1 GSZ       0.1222
      9 OAG        30.1284   41.9783   21.8297 O.3         1 GSZ      -0.3842
     10 CAA        31.7745   43.6884   21.3601 C.3         1 GSZ       0.1176
     11 OAH        32.4134   44.3698   20.2761 O.3         1 GSZ      -0.3858
     12 CAF        32.8289   43.3452   22.4604 C.3         1 GSZ       0.1168
     13 CAI        32.2493   43.0173   23.8691 C.3         1 GSZ       0.0768
     14 OAJ        30.9925   43.6284   24.1512 O.3         1 GSZ      -0.3919
     15 NAE        33.6454   42.2425   22.0321 N.pl3       1 GSZ      -0.2497
     16 CAQ        34.8401   41.8858   22.5277 C.2         1 GSZ       0.0236
     17 CAD        33.2723   41.2844   21.1579 C.2         1 GSZ       0.1393
     18 NAO        34.2222   40.3362   21.0828 N.2         1 GSZ      -0.3317
     19 CAP        35.2042   40.6868   21.9281 C.2         1 GSZ      -0.0178
     20 CAR        36.4086   39.8856   22.2043 C.3         1 GSZ      -0.0191
     21 CAS        37.7209   40.5755   21.7358 C.3         1 GSZ      -0.0133
     22 CAT        38.2815   41.5102   22.7437 C.ar        1 GSZ      -0.0416
     23 CAU        38.9646   40.9976   23.8732 C.ar        1 GSZ      -0.0602
     24 CAV        39.5587   41.8686   24.8008 C.ar        1 GSZ      -0.0686
     25 CAW        39.4631   43.2618   24.6212 C.ar        1 GSZ      -0.0687
     26 CAX        38.7624   43.7837   23.5191 C.ar        1 GSZ      -0.0686
     27 CAY        38.1800   42.9109   22.5816 C.ar        1 GSZ      -0.0602
     28 H1         31.6329   41.7188   14.9878 H           1 GSZ       0.0257
     29 H2         31.2399   42.4533   16.5433 H           1 GSZ       0.0257
     30 H3         30.3579   41.0127   15.9982 H           1 GSZ       0.0257
     31 H4         33.3390   41.1486   16.6816 H           1 GSZ       0.0532
     32 H5         33.4291   38.7003   16.3817 H           1 GSZ       0.0257
     33 H6         32.9995   39.5400   14.8864 H           1 GSZ       0.0257
     34 H7         31.7463   38.6982   15.8187 H           1 GSZ       0.0257
     35 H8         32.7276   42.1032   18.6793 H           1 GSZ       0.1888
     36 H9         31.5130   40.3096   20.6752 H           1 GSZ       0.0820
     37 H10        30.4203   42.7181   19.9653 H           1 GSZ       0.0672
     38 H11        29.4497   41.4517   21.3581 H           1 GSZ       0.2103
     39 H12        31.0406   44.3874   21.7647 H           1 GSZ       0.0654
     40 H13        33.1890   43.8236   20.0252 H           1 GSZ       0.2100
     41 H14        33.4648   44.2294   22.5715 H           1 GSZ       0.0699
     42 H15        32.9650   43.3439   24.6280 H           1 GSZ       0.0589
     43 H16        32.1200   41.9405   23.9876 H           1 GSZ       0.0589
     44 H17        31.1783   44.5772   24.3025 H           1 GSZ       0.2095
     45 H18        35.3733   42.3861   23.2406 H           1 GSZ       0.0663
     46 H19        36.3101   38.9365   21.6767 H           1 GSZ       0.0392
     47 H20        36.4364   39.6504   23.2727 H           1 GSZ       0.0392
     48 H21        37.5551   41.0762   20.7760 H           1 GSZ       0.0442
     49 H22        38.4801   39.8132   21.5474 H           1 GSZ       0.0442
     50 H23        39.0476   39.9875   24.0199 H           1 GSZ       0.0557
     51 H24        40.0545   41.4865   25.6068 H           1 GSZ       0.0599
     52 H25        39.8926   43.8937   25.2996 H           1 GSZ       0.0559
     53 H26        38.6819   44.7950   23.3954 H           1 GSZ       0.0599
     54 H27        37.6825   43.3047   21.7805 H           1 GSZ       0.0557
@<TRIPOS>BOND
     1     1     2   1
     2     2     3   1
     3     2     4   1
     4     4     5   2
     5     4     6  am
     6     6     7   1
     7     7     8   1
     8     7    17   1
     9     8     9   1
    10     8    10   1
    11    10    11   1
    12    10    12   1
    13    12    13   1
    14    12    15   1
    15    13    14   1
    16    15    16   1
    17    15    17   1
    18    16    19   2
    19    17    18   2
    20    18    19   1
    21    19    20   1
    22    20    21   1
    23    21    22   1
    24    22    23  ar
    25    22    27  ar
    26    23    24  ar
    27    24    25  ar
    28    25    26  ar
    29    26    27  ar
    30     1    28   1
    31     1    29   1
    32     1    30   1
    33     2    31   1
    34     3    32   1
    35     3    33   1
    36     3    34   1
    37     6    35   1
    38     7    36   1
    39     8    37   1
    40     9    38   1
    41    10    39   1
    42    11    40   1
    43    12    41   1
    44    13    42   1
    45    13    43   1
    46    14    44   1
    47    16    45   1
    48    20    46   1
    49    20    47   1
    50    21    48   1
    51    21    49   1
    52    23    50   1
    53    24    51   1
    54    25    52   1
    55    26    53   1
    56    27    54   1
@<TRIPOS>SUBSTRUCTURE
     1  GSZ      1

