@<TRIPOS>MOLECULE
2j62_ligand_059
    54    56
SMALL
GAST_HUCK
****
This file was generated by PARSER (from files_GN.cpp)

@<TRIPOS>ATOM
      1 CAZ        26.5200   43.4435   16.2598 C.3         1 GSZ      -0.0456
      2 CAN        27.2046   42.3851   15.3665 C.3         1 GSZ       0.0432
      3 CBA        26.1500   41.4455   14.7154 C.3         1 GSZ      -0.0456
      4 CAL        28.2331   41.7053   16.1379 C.2         1 GSZ       0.1811
      5 OAM        28.0808   40.5240   16.4782 O.2         1 GSZ      -0.3966
      6 NAK        29.3778   42.3350   16.3717 N.am        1 GSZ      -0.2638
      7 CAC        30.5330   41.8726   17.0811 C.3         1 GSZ       0.1446
      8 CAB        31.1302   40.5391   16.5288 C.3         1 GSZ       0.1222
      9 OAG        31.5386   40.7338   15.1770 O.3         1 GSZ      -0.3842
     10 CAA        32.3174   40.0717   17.4112 C.3         1 GSZ       0.1176
     11 OAH        32.8605   38.8600   16.8842 O.3         1 GSZ      -0.3858
     12 CAF        31.9115   39.8864   18.9187 C.3         1 GSZ       0.1168
     13 CAI        33.2001   39.8855   19.8068 C.3         1 GSZ       0.0768
     14 OAJ        32.9917   39.6952   21.2096 O.3         1 GSZ      -0.3919
     15 NAE        30.9581   40.8925   19.3390 N.pl3       1 GSZ      -0.2497
     16 CAQ        30.5307   41.1159   20.5949 C.2         1 GSZ       0.0236
     17 CAD        30.3427   41.7948   18.5494 C.2         1 GSZ       0.1393
     18 NAO        29.6605   42.6777   19.3041 N.2         1 GSZ      -0.3317
     19 CAP        29.7820   42.2823   20.5889 C.2         1 GSZ      -0.0178
     20 CAR        29.3207   42.9664   21.8047 C.3         1 GSZ      -0.0191
     21 CAS        30.4185   43.6525   22.6935 C.3         1 GSZ      -0.0133
     22 CAT        31.8478   43.3100   22.4268 C.ar        1 GSZ      -0.0416
     23 CAU        32.4871   43.8018   21.2654 C.ar        1 GSZ      -0.0602
     24 CAV        33.8134   43.4532   20.9676 C.ar        1 GSZ      -0.0686
     25 CAW        34.5354   42.6200   21.8451 C.ar        1 GSZ      -0.0687
     26 CAX        33.9192   42.1249   23.0044 C.ar        1 GSZ      -0.0686
     27 CAY        32.5857   42.4761   23.3003 C.ar        1 GSZ      -0.0602
     28 H1         25.7627   43.9909   15.6925 H           1 GSZ       0.0257
     29 H2         27.2564   44.1596   16.6149 H           1 GSZ       0.0257
     30 H3         26.0388   42.9686   17.1136 H           1 GSZ       0.0257
     31 H4         27.6903   42.9089   14.5334 H           1 GSZ       0.0532
     32 H5         26.6325   40.7864   13.9854 H           1 GSZ       0.0257
     33 H6         25.3887   42.0350   14.1926 H           1 GSZ       0.0257
     34 H7         25.6490   40.8317   15.4708 H           1 GSZ       0.0257
     35 H8         29.4411   43.2315   15.9979 H           1 GSZ       0.1888
     36 H9         31.2907   42.6487   16.9422 H           1 GSZ       0.0820
     37 H10        30.3897   39.7391   16.5340 H           1 GSZ       0.0672
     38 H11        32.2497   41.4084   15.1978 H           1 GSZ       0.2103
     39 H12        33.0867   40.8377   17.3352 H           1 GSZ       0.0654
     40 H13        33.7053   38.7403   17.3644 H           1 GSZ       0.2100
     41 H14        31.4220   38.9158   19.0209 H           1 GSZ       0.0699
     42 H15        33.7228   40.8321   19.6803 H           1 GSZ       0.0589
     43 H16        33.8672   39.0858   19.4792 H           1 GSZ       0.0589
     44 H17        32.4561   38.8787   21.2884 H           1 GSZ       0.2095
     45 H18        30.7678   40.5779   21.4293 H           1 GSZ       0.0663
     46 H19        28.7976   42.2185   22.4039 H           1 GSZ       0.0392
     47 H20        28.5760   43.7128   21.5193 H           1 GSZ       0.0392
     48 H21        30.1825   43.4304   23.7382 H           1 GSZ       0.0442
     49 H22        30.3207   44.7375   22.6153 H           1 GSZ       0.0442
     50 H23        31.9840   44.4094   20.6145 H           1 GSZ       0.0557
     51 H24        34.2532   43.7934   20.1131 H           1 GSZ       0.0599
     52 H25        35.5037   42.3669   21.6312 H           1 GSZ       0.0559
     53 H26        34.4389   41.5155   23.6367 H           1 GSZ       0.0599
     54 H27        32.1526   42.0875   24.1385 H           1 GSZ       0.0557
@<TRIPOS>BOND
     1     1     2   1
     2     2     3   1
     3     2     4   1
     4     4     5   2
     5     4     6  am
     6     6     7   1
     7     7     8   1
     8     7    17   1
     9     8     9   1
    10     8    10   1
    11    10    11   1
    12    10    12   1
    13    12    13   1
    14    12    15   1
    15    13    14   1
    16    15    16   1
    17    15    17   1
    18    16    19   2
    19    17    18   2
    20    18    19   1
    21    19    20   1
    22    20    21   1
    23    21    22   1
    24    22    23  ar
    25    22    27  ar
    26    23    24  ar
    27    24    25  ar
    28    25    26  ar
    29    26    27  ar
    30     1    28   1
    31     1    29   1
    32     1    30   1
    33     2    31   1
    34     3    32   1
    35     3    33   1
    36     3    34   1
    37     6    35   1
    38     7    36   1
    39     8    37   1
    40     9    38   1
    41    10    39   1
    42    11    40   1
    43    12    41   1
    44    13    42   1
    45    13    43   1
    46    14    44   1
    47    16    45   1
    48    20    46   1
    49    20    47   1
    50    21    48   1
    51    21    49   1
    52    23    50   1
    53    24    51   1
    54    25    52   1
    55    26    53   1
    56    27    54   1
@<TRIPOS>SUBSTRUCTURE
     1  GSZ      1

