@<TRIPOS>MOLECULE
2j62_ligand_040
    54    56
SMALL
GAST_HUCK
****
This file was generated by PARSER (from files_GN.cpp)

@<TRIPOS>ATOM
      1 CAZ        36.0699   32.5338   13.2223 C.3         1 GSZ      -0.0456
      2 CAN        35.9404   33.8095   14.1043 C.3         1 GSZ       0.0432
      3 CBA        34.7729   33.6420   15.1172 C.3         1 GSZ      -0.0456
      4 CAL        35.8143   35.0624   13.3546 C.2         1 GSZ       0.1811
      5 OAM        35.7306   35.0479   12.1311 O.2         1 GSZ      -0.3966
      6 NAK        35.8668   36.2160   14.0149 N.am        1 GSZ      -0.2638
      7 CAC        35.7817   37.5328   13.4448 C.3         1 GSZ       0.1446
      8 CAB        37.2082   38.1468   13.3409 C.3         1 GSZ       0.1222
      9 OAG        38.0070   37.3532   12.4589 O.3         1 GSZ      -0.3842
     10 CAA        37.1263   39.6117   12.8270 C.3         1 GSZ       0.1176
     11 OAH        38.4376   40.1722   12.7708 O.3         1 GSZ      -0.3858
     12 CAF        36.1968   40.5056   13.7237 C.3         1 GSZ       0.1168
     13 CAI        35.6676   41.7732   12.9634 C.3         1 GSZ       0.0768
     14 OAJ        36.3339   42.9485   13.4191 O.3         1 GSZ      -0.3919
     15 NAE        35.1192   39.7627   14.3390 N.pl3       1 GSZ      -0.2497
     16 CAQ        34.1929   40.2513   15.1854 C.2         1 GSZ       0.0236
     17 CAD        34.9122   38.4319   14.2436 C.2         1 GSZ       0.1393
     18 NAO        33.8504   38.0881   15.0004 N.2         1 GSZ      -0.3317
     19 CAP        33.3808   39.1996   15.5999 C.2         1 GSZ      -0.0178
     20 CAR        32.2367   39.1992   16.5483 C.3         1 GSZ      -0.0191
     21 CAS        31.9962   40.4723   17.4334 C.3         1 GSZ      -0.0133
     22 CAT        31.7300   40.1787   18.8751 C.ar        1 GSZ      -0.0416
     23 CAU        30.6269   39.3762   19.2464 C.ar        1 GSZ      -0.0602
     24 CAV        30.3634   39.0976   20.6006 C.ar        1 GSZ      -0.0686
     25 CAW        31.1972   39.6249   21.6042 C.ar        1 GSZ      -0.0687
     26 CAX        32.2939   40.4310   21.2545 C.ar        1 GSZ      -0.0686
     27 CAY        32.5582   40.7038   19.9005 C.ar        1 GSZ      -0.0602
     28 H1         36.2160   31.6496   13.8494 H           1 GSZ       0.0257
     29 H2         36.9309   32.6207   12.5550 H           1 GSZ       0.0257
     30 H3         35.1704   32.3854   12.6208 H           1 GSZ       0.0257
     31 H4         36.8647   33.8725   14.6858 H           1 GSZ       0.0532
     32 H5         34.7435   34.4811   15.8148 H           1 GSZ       0.0257
     33 H6         34.9058   32.7287   15.7001 H           1 GSZ       0.0257
     34 H7         33.8158   33.5845   14.5945 H           1 GSZ       0.0257
     35 H8         36.0507   36.1569   14.9690 H           1 GSZ       0.1888
     36 H9         35.3548   37.4954   12.4376 H           1 GSZ       0.0820
     37 H10        37.6839   38.1389   14.3273 H           1 GSZ       0.0672
     38 H11        38.9382   37.5858   12.6630 H           1 GSZ       0.2103
     39 H12        36.7399   39.5752   11.8068 H           1 GSZ       0.0654
     40 H13        38.3070   41.1096   12.5201 H           1 GSZ       0.2100
     41 H14        36.8145   40.8416   14.5646 H           1 GSZ       0.0699
     42 H15        34.5953   41.9125   13.1238 H           1 GSZ       0.0589
     43 H16        35.8204   41.7007   11.8855 H           1 GSZ       0.0589
     44 H17        36.0633   43.6584   12.8006 H           1 GSZ       0.2095
     45 H18        34.1135   41.2305   15.4641 H           1 GSZ       0.0663
     46 H19        32.3765   38.3295   17.1952 H           1 GSZ       0.0392
     47 H20        31.3326   39.0106   15.9626 H           1 GSZ       0.0392
     48 H21        31.1432   41.0332   17.0341 H           1 GSZ       0.0442
     49 H22        32.8545   41.1407   17.3635 H           1 GSZ       0.0442
     50 H23        30.0114   38.9903   18.5277 H           1 GSZ       0.0557
     51 H24        29.5579   38.5199   20.8544 H           1 GSZ       0.0599
     52 H25        30.9947   39.4372   22.5884 H           1 GSZ       0.0559
     53 H26        32.8884   40.8301   21.9837 H           1 GSZ       0.0599
     54 H27        33.3606   41.2934   19.6709 H           1 GSZ       0.0557
@<TRIPOS>BOND
     1     1     2   1
     2     2     3   1
     3     2     4   1
     4     4     5   2
     5     4     6  am
     6     6     7   1
     7     7     8   1
     8     7    17   1
     9     8     9   1
    10     8    10   1
    11    10    11   1
    12    10    12   1
    13    12    13   1
    14    12    15   1
    15    13    14   1
    16    15    16   1
    17    15    17   1
    18    16    19   2
    19    17    18   2
    20    18    19   1
    21    19    20   1
    22    20    21   1
    23    21    22   1
    24    22    23  ar
    25    22    27  ar
    26    23    24  ar
    27    24    25  ar
    28    25    26  ar
    29    26    27  ar
    30     1    28   1
    31     1    29   1
    32     1    30   1
    33     2    31   1
    34     3    32   1
    35     3    33   1
    36     3    34   1
    37     6    35   1
    38     7    36   1
    39     8    37   1
    40     9    38   1
    41    10    39   1
    42    11    40   1
    43    12    41   1
    44    13    42   1
    45    13    43   1
    46    14    44   1
    47    16    45   1
    48    20    46   1
    49    20    47   1
    50    21    48   1
    51    21    49   1
    52    23    50   1
    53    24    51   1
    54    25    52   1
    55    26    53   1
    56    27    54   1
@<TRIPOS>SUBSTRUCTURE
     1  GSZ      1

