@<TRIPOS>MOLECULE
2j62_ligand_026
    54    56
SMALL
GAST_HUCK
****
This file was generated by PARSER (from files_GN.cpp)

@<TRIPOS>ATOM
      1 CAZ        36.2739   43.2122    9.2457 C.3         1 GSZ      -0.0456
      2 CAN        37.7348   42.6968    9.2065 C.3         1 GSZ       0.0432
      3 CBA        38.1378   42.3874    7.7335 C.3         1 GSZ      -0.0456
      4 CAL        37.9002   41.5822   10.1375 C.2         1 GSZ       0.1811
      5 OAM        38.1590   40.4712    9.6887 O.2         1 GSZ      -0.3966
      6 NAK        37.7302   41.7982   11.4456 N.am        1 GSZ      -0.2638
      7 CAC        37.8254   40.9229   12.5903 C.3         1 GSZ       0.1446
      8 CAB        38.5774   39.5706   12.4001 C.3         1 GSZ       0.1222
      9 OAG        39.9353   39.7995   12.0364 O.3         1 GSZ      -0.3842
     10 CAA        38.4963   38.6905   13.6746 C.3         1 GSZ       0.1176
     11 OAH        39.2415   37.4882   13.4506 O.3         1 GSZ      -0.3858
     12 CAF        37.0049   38.3797   14.0501 C.3         1 GSZ       0.1168
     13 CAI        36.8456   37.8109   15.5007 C.3         1 GSZ       0.0768
     14 OAJ        38.0620   37.5184   16.1860 O.3         1 GSZ      -0.3919
     15 NAE        36.1396   39.5220   13.8045 N.pl3       1 GSZ      -0.2497
     16 CAQ        34.8357   39.6328   14.1106 C.2         1 GSZ       0.0236
     17 CAD        36.4927   40.6722   13.1855 C.2         1 GSZ       0.1393
     18 NAO        35.4637   41.5391   13.2085 N.2         1 GSZ      -0.3317
     19 CAP        34.4220   40.9249   13.7927 C.2         1 GSZ      -0.0178
     20 CAR        33.0926   41.5360   13.9973 C.3         1 GSZ      -0.0191
     21 CAS        32.5130   41.4359   15.4414 C.3         1 GSZ      -0.0133
     22 CAT        31.5947   40.2824   15.6468 C.ar        1 GSZ      -0.0416
     23 CAU        31.9731   39.1733   16.4437 C.ar        1 GSZ      -0.0602
     24 CAV        31.0971   38.0850   16.6192 C.ar        1 GSZ      -0.0686
     25 CAW        29.8254   38.0983   16.0231 C.ar        1 GSZ      -0.0687
     26 CAX        29.4267   39.2043   15.2459 C.ar        1 GSZ      -0.0686
     27 CAY        30.3109   40.2833   15.0572 C.ar        1 GSZ      -0.0602
     28 H1         36.1839   44.0757    8.5894 H           1 GSZ       0.0257
     29 H2         35.9855   43.5250   10.2511 H           1 GSZ       0.0257
     30 H3         35.5763   42.4372    8.9079 H           1 GSZ       0.0257
     31 H4         38.3930   43.5006    9.5454 H           1 GSZ       0.0532
     32 H5         39.1759   42.0601    7.6795 H           1 GSZ       0.0257
     33 H6         38.0408   43.2841    7.1151 H           1 GSZ       0.0257
     34 H7         37.5089   41.6007    7.3112 H           1 GSZ       0.0257
     35 H8         37.5048   42.7232   11.6683 H           1 GSZ       0.1888
     36 H9         38.3848   41.4925   13.3356 H           1 GSZ       0.0820
     37 H10        38.1091   38.9866   11.6073 H           1 GSZ       0.0672
     38 H11        40.3269   40.3127   12.7776 H           1 GSZ       0.2103
     39 H12        38.9750   39.2217   14.4867 H           1 GSZ       0.0654
     40 H13        38.9153   37.1332   12.5928 H           1 GSZ       0.2100
     41 H14        36.6653   37.6019   13.3530 H           1 GSZ       0.0699
     42 H15        36.2519   36.8949   15.4538 H           1 GSZ       0.0589
     43 H16        36.3070   38.5095   16.1451 H           1 GSZ       0.0589
     44 H17        37.8030   36.8210   16.8483 H           1 GSZ       0.2095
     45 H18        34.2540   38.9121   14.5445 H           1 GSZ       0.0663
     46 H19        32.4082   41.0716   13.2786 H           1 GSZ       0.0392
     47 H20        33.1753   42.5926   13.7382 H           1 GSZ       0.0392
     48 H21        31.9579   42.3489   15.6630 H           1 GSZ       0.0442
     49 H22        33.3366   41.4056   16.1566 H           1 GSZ       0.0442
     50 H23        32.8906   39.1425   16.8900 H           1 GSZ       0.0557
     51 H24        31.3864   37.2773   17.1833 H           1 GSZ       0.0599
     52 H25        29.1889   37.3076   16.1492 H           1 GSZ       0.0559
     53 H26        28.4963   39.2146   14.8172 H           1 GSZ       0.0599
     54 H27        30.0019   41.0754   14.4885 H           1 GSZ       0.0557
@<TRIPOS>BOND
     1     1     2   1
     2     2     3   1
     3     2     4   1
     4     4     5   2
     5     4     6  am
     6     6     7   1
     7     7     8   1
     8     7    17   1
     9     8     9   1
    10     8    10   1
    11    10    11   1
    12    10    12   1
    13    12    13   1
    14    12    15   1
    15    13    14   1
    16    15    16   1
    17    15    17   1
    18    16    19   2
    19    17    18   2
    20    18    19   1
    21    19    20   1
    22    20    21   1
    23    21    22   1
    24    22    23  ar
    25    22    27  ar
    26    23    24  ar
    27    24    25  ar
    28    25    26  ar
    29    26    27  ar
    30     1    28   1
    31     1    29   1
    32     1    30   1
    33     2    31   1
    34     3    32   1
    35     3    33   1
    36     3    34   1
    37     6    35   1
    38     7    36   1
    39     8    37   1
    40     9    38   1
    41    10    39   1
    42    11    40   1
    43    12    41   1
    44    13    42   1
    45    13    43   1
    46    14    44   1
    47    16    45   1
    48    20    46   1
    49    20    47   1
    50    21    48   1
    51    21    49   1
    52    23    50   1
    53    24    51   1
    54    25    52   1
    55    26    53   1
    56    27    54   1
@<TRIPOS>SUBSTRUCTURE
     1  GSZ      1

