@<TRIPOS>MOLECULE
2j62_ligand_056
    54    56
SMALL
GAST_HUCK
****
This file was generated by PARSER (from files_GN.cpp)

@<TRIPOS>ATOM
      1 CAZ        35.9576   35.6910   12.2169 C.3         1 GSZ      -0.0456
      2 CAN        36.5057   35.5883   10.7762 C.3         1 GSZ       0.0432
      3 CBA        37.5745   34.4699   10.6533 C.3         1 GSZ      -0.0456
      4 CAL        36.9902   36.8995   10.3586 C.2         1 GSZ       0.1811
      5 OAM        38.0420   37.3159   10.8327 O.2         1 GSZ      -0.3966
      6 NAK        36.2369   37.6610    9.5722 N.am        1 GSZ      -0.2638
      7 CAC        36.5290   38.9512    9.0185 C.3         1 GSZ       0.1446
      8 CAB        37.8710   38.9739    8.2260 C.3         1 GSZ       0.1222
      9 OAG        37.8186   38.0815    7.1125 O.3         1 GSZ      -0.3842
     10 CAA        38.2398   40.4052    7.7714 C.3         1 GSZ       0.1176
     11 OAH        39.4931   40.3381    7.0865 O.3         1 GSZ      -0.3858
     12 CAF        38.2981   41.3921    8.9922 C.3         1 GSZ       0.1168
     13 CAI        38.2933   42.8636    8.4907 C.3         1 GSZ       0.0768
     14 OAJ        37.0228   43.2252    7.9584 O.3         1 GSZ      -0.3919
     15 NAE        37.2679   41.1366    9.9714 N.pl3       1 GSZ      -0.2497
     16 CAQ        36.9482   41.8908   11.0374 C.2         1 GSZ       0.0236
     17 CAD        36.4679   40.0488   10.0123 C.2         1 GSZ       0.1393
     18 NAO        35.5807   40.1667   11.0204 N.2         1 GSZ      -0.3317
     19 CAP        35.8547   41.3117   11.6658 C.2         1 GSZ      -0.0178
     20 CAR        35.1536   41.8588   12.8427 C.3         1 GSZ      -0.0191
     21 CAS        35.7863   41.3676   14.1763 C.3         1 GSZ      -0.0133
     22 CAT        35.6680   39.9104   14.5017 C.ar        1 GSZ      -0.0416
     23 CAU        34.5532   39.1394   14.0967 C.ar        1 GSZ      -0.0602
     24 CAV        34.4398   37.7888   14.4560 C.ar        1 GSZ      -0.0686
     25 CAW        35.4407   37.1799   15.2329 C.ar        1 GSZ      -0.0687
     26 CAX        36.5510   37.9282   15.6583 C.ar        1 GSZ      -0.0686
     27 CAY        36.6571   39.2834   15.3002 C.ar        1 GSZ      -0.0602
     28 H1         35.5379   34.7391   12.5465 H           1 GSZ       0.0257
     29 H2         35.1649   36.4377   12.2390 H           1 GSZ       0.0257
     30 H3         36.7463   35.9873   12.9112 H           1 GSZ       0.0257
     31 H4         35.6695   35.2857   10.1357 H           1 GSZ       0.0532
     32 H5         37.9507   34.4159    9.6303 H           1 GSZ       0.0257
     33 H6         37.1354   33.5034   10.9085 H           1 GSZ       0.0257
     34 H7         38.4133   34.6557   11.3272 H           1 GSZ       0.0257
     35 H8         35.3750   37.2919    9.3257 H           1 GSZ       0.1888
     36 H9         35.7253   39.1656    8.3109 H           1 GSZ       0.0820
     37 H10        38.6797   38.6308    8.8665 H           1 GSZ       0.0672
     38 H11        37.0957   38.4151    6.5391 H           1 GSZ       0.2103
     39 H12        37.4828   40.7355    7.0529 H           1 GSZ       0.0654
     40 H13        39.5999   41.1975    6.6313 H           1 GSZ       0.2100
     41 H14        39.2385   41.2253    9.5192 H           1 GSZ       0.0699
     42 H15        39.0485   43.0010    7.7157 H           1 GSZ       0.0589
     43 H16        38.5346   43.5456    9.3081 H           1 GSZ       0.0589
     44 H17        37.1552   44.1351    7.6211 H           1 GSZ       0.2095
     45 H18        37.4048   42.7539   11.3323 H           1 GSZ       0.0663
     46 H19        34.0988   41.5996   12.7958 H           1 GSZ       0.0392
     47 H20        35.1916   42.9480   12.8065 H           1 GSZ       0.0392
     48 H21        35.3261   41.9248   15.0004 H           1 GSZ       0.0442
     49 H22        36.8471   41.6611   14.1569 H           1 GSZ       0.0442
     50 H23        33.8151   39.5377   13.5313 H           1 GSZ       0.0557
     51 H24        33.6477   37.2352   14.1237 H           1 GSZ       0.0599
     52 H25        35.3649   36.1821   15.4653 H           1 GSZ       0.0559
     53 H26        37.2768   37.4850   16.2209 H           1 GSZ       0.0599
     54 H27        37.4687   39.8101   15.6300 H           1 GSZ       0.0557
@<TRIPOS>BOND
     1     1     2   1
     2     2     3   1
     3     2     4   1
     4     4     5   2
     5     4     6  am
     6     6     7   1
     7     7     8   1
     8     7    17   1
     9     8     9   1
    10     8    10   1
    11    10    11   1
    12    10    12   1
    13    12    13   1
    14    12    15   1
    15    13    14   1
    16    15    16   1
    17    15    17   1
    18    16    19   2
    19    17    18   2
    20    18    19   1
    21    19    20   1
    22    20    21   1
    23    21    22   1
    24    22    23  ar
    25    22    27  ar
    26    23    24  ar
    27    24    25  ar
    28    25    26  ar
    29    26    27  ar
    30     1    28   1
    31     1    29   1
    32     1    30   1
    33     2    31   1
    34     3    32   1
    35     3    33   1
    36     3    34   1
    37     6    35   1
    38     7    36   1
    39     8    37   1
    40     9    38   1
    41    10    39   1
    42    11    40   1
    43    12    41   1
    44    13    42   1
    45    13    43   1
    46    14    44   1
    47    16    45   1
    48    20    46   1
    49    20    47   1
    50    21    48   1
    51    21    49   1
    52    23    50   1
    53    24    51   1
    54    25    52   1
    55    26    53   1
    56    27    54   1
@<TRIPOS>SUBSTRUCTURE
     1  GSZ      1

