@<TRIPOS>MOLECULE
2j62_ligand_051
    54    56
SMALL
GAST_HUCK
****
This file was generated by PARSER (from files_GN.cpp)

@<TRIPOS>ATOM
      1 CAZ        36.1925   42.8458   22.3496 C.3         1 GSZ      -0.0456
      2 CAN        35.4908   41.9426   21.3088 C.3         1 GSZ       0.0432
      3 CBA        35.6999   42.3822   19.8508 C.3         1 GSZ      -0.0456
      4 CAL        34.1038   41.8231   21.6204 C.2         1 GSZ       0.1811
      5 OAM        33.8157   40.7853   22.2273 O.2         1 GSZ      -0.3966
      6 NAK        33.2049   42.7758   21.2706 N.am        1 GSZ      -0.2638
      7 CAC        31.7863   42.8055   21.4433 C.3         1 GSZ       0.1446
      8 CAB        31.2665   41.7808   22.4843 C.3         1 GSZ       0.1222
      9 OAG        31.7973   42.1243   23.7611 O.3         1 GSZ      -0.3842
     10 CAA        29.7492   41.6140   22.4872 C.3         1 GSZ       0.1176
     11 OAH        29.4201   40.6103   23.4489 O.3         1 GSZ      -0.3858
     12 CAF        29.2436   41.2196   21.0517 C.3         1 GSZ       0.1168
     13 CAI        27.7094   41.4517   20.9622 C.3         1 GSZ       0.0768
     14 OAJ        27.3327   42.7537   21.4001 O.3         1 GSZ      -0.3919
     15 NAE        29.9746   41.8864   19.9886 N.pl3       1 GSZ      -0.2497
     16 CAQ        29.7297   41.8281   18.6651 C.2         1 GSZ       0.0236
     17 CAD        31.1012   42.6094   20.1426 C.2         1 GSZ       0.1393
     18 NAO        31.5266   43.0772   18.9449 N.2         1 GSZ      -0.3317
     19 CAP        30.6858   42.5904   18.0114 C.2         1 GSZ      -0.0178
     20 CAR        30.7805   42.8416   16.5601 C.3         1 GSZ      -0.0191
     21 CAS        31.6307   41.7903   15.7978 C.3         1 GSZ      -0.0133
     22 CAT        31.0724   40.4102   15.8553 C.ar        1 GSZ      -0.0416
     23 CAU        31.7476   39.3823   16.5554 C.ar        1 GSZ      -0.0602
     24 CAV        31.2097   38.0838   16.6196 C.ar        1 GSZ      -0.0686
     25 CAW        29.9913   37.7950   15.9807 C.ar        1 GSZ      -0.0687
     26 CAX        29.3064   38.8062   15.2844 C.ar        1 GSZ      -0.0686
     27 CAY        29.8442   40.1048   15.2202 C.ar        1 GSZ      -0.0602
     28 H1         37.2677   42.8353   22.1674 H           1 GSZ       0.0257
     29 H2         36.0141   42.4817   23.3649 H           1 GSZ       0.0257
     30 H3         35.8272   43.8730   22.2806 H           1 GSZ       0.0257
     31 H4         35.9693   40.9468   21.3938 H           1 GSZ       0.0532
     32 H5         35.1851   41.7011   19.1733 H           1 GSZ       0.0257
     33 H6         36.7641   42.3745   19.6192 H           1 GSZ       0.0257
     34 H7         35.3047   43.3862   19.6790 H           1 GSZ       0.0257
     35 H8         33.5719   43.5195   20.7683 H           1 GSZ       0.1888
     36 H9         31.5150   43.8203   21.7823 H           1 GSZ       0.0820
     37 H10        31.6003   40.7762   22.1998 H           1 GSZ       0.0672
     38 H11        31.9957   41.2693   24.1922 H           1 GSZ       0.2103
     39 H12        29.3447   42.5667   22.8255 H           1 GSZ       0.0654
     40 H13        28.4775   40.7722   23.6369 H           1 GSZ       0.2100
     41 H14        29.4244   40.1495   20.9051 H           1 GSZ       0.0699
     42 H15        27.1928   40.7142   21.5777 H           1 GSZ       0.0589
     43 H16        27.3588   41.3244   19.9399 H           1 GSZ       0.0589
     44 H17        28.0773   43.3421   21.1540 H           1 GSZ       0.2095
     45 H18        28.9684   41.3213   18.2080 H           1 GSZ       0.0663
     46 H19        31.2235   43.8278   16.4098 H           1 GSZ       0.0392
     47 H20        29.7742   42.8798   16.1342 H           1 GSZ       0.0392
     48 H21        32.6510   41.8116   16.1896 H           1 GSZ       0.0442
     49 H22        31.6990   42.0924   14.7511 H           1 GSZ       0.0442
     50 H23        32.6329   39.5729   17.0314 H           1 GSZ       0.0557
     51 H24        31.7051   37.3496   17.1305 H           1 GSZ       0.0599
     52 H25        29.6079   36.8493   16.0180 H           1 GSZ       0.0559
     53 H26        28.4200   38.5948   14.8192 H           1 GSZ       0.0599
     54 H27        29.3318   40.8276   14.7083 H           1 GSZ       0.0557
@<TRIPOS>BOND
     1     1     2   1
     2     2     3   1
     3     2     4   1
     4     4     5   2
     5     4     6  am
     6     6     7   1
     7     7     8   1
     8     7    17   1
     9     8     9   1
    10     8    10   1
    11    10    11   1
    12    10    12   1
    13    12    13   1
    14    12    15   1
    15    13    14   1
    16    15    16   1
    17    15    17   1
    18    16    19   2
    19    17    18   2
    20    18    19   1
    21    19    20   1
    22    20    21   1
    23    21    22   1
    24    22    23  ar
    25    22    27  ar
    26    23    24  ar
    27    24    25  ar
    28    25    26  ar
    29    26    27  ar
    30     1    28   1
    31     1    29   1
    32     1    30   1
    33     2    31   1
    34     3    32   1
    35     3    33   1
    36     3    34   1
    37     6    35   1
    38     7    36   1
    39     8    37   1
    40     9    38   1
    41    10    39   1
    42    11    40   1
    43    12    41   1
    44    13    42   1
    45    13    43   1
    46    14    44   1
    47    16    45   1
    48    20    46   1
    49    20    47   1
    50    21    48   1
    51    21    49   1
    52    23    50   1
    53    24    51   1
    54    25    52   1
    55    26    53   1
    56    27    54   1
@<TRIPOS>SUBSTRUCTURE
     1  GSZ      1

