@<TRIPOS>MOLECULE
2j62_ligand_036
    54    56
SMALL
GAST_HUCK
****
This file was generated by PARSER (from files_GN.cpp)

@<TRIPOS>ATOM
      1 CAZ        30.5557   41.8410   15.8558 C.3         1 GSZ      -0.0456
      2 CAN        31.3192   40.5438   15.4440 C.3         1 GSZ       0.0432
      3 CBA        30.8790   39.3639   16.3558 C.3         1 GSZ      -0.0456
      4 CAL        32.7759   40.6679   15.4200 C.2         1 GSZ       0.1811
      5 OAM        33.3198   41.7403   15.7051 O.2         1 GSZ      -0.3966
      6 NAK        33.5287   39.6352   15.0352 N.am        1 GSZ      -0.2638
      7 CAC        34.9650   39.5664   15.0823 C.3         1 GSZ       0.1446
      8 CAB        35.6685   40.7868   14.3868 C.3         1 GSZ       0.1222
      9 OAG        36.7771   41.2522   15.1654 O.3         1 GSZ      -0.3842
     10 CAA        36.0940   40.5006   12.9159 C.3         1 GSZ       0.1176
     11 OAH        34.8968   40.4143   12.1390 O.3         1 GSZ      -0.3858
     12 CAF        36.9102   39.1755   12.7601 C.3         1 GSZ       0.1168
     13 CAI        38.4240   39.3149   13.1187 C.3         1 GSZ       0.0768
     14 OAJ        39.2565   38.6114   12.1972 O.3         1 GSZ      -0.3919
     15 NAE        36.2931   38.1114   13.5098 N.pl3       1 GSZ      -0.2497
     16 CAQ        36.5003   36.7919   13.3573 C.2         1 GSZ       0.0236
     17 CAD        35.4207   38.2605   14.5309 C.2         1 GSZ       0.1393
     18 NAO        35.0575   37.0473   14.9921 N.2         1 GSZ      -0.3317
     19 CAP        35.7004   36.1124   14.2724 C.2         1 GSZ      -0.0178
     20 CAR        35.6004   34.6470   14.4702 C.3         1 GSZ      -0.0191
     21 CAS        34.9448   33.8549   13.2982 C.3         1 GSZ      -0.0133
     22 CAT        35.8846   33.4612   12.2043 C.ar        1 GSZ      -0.0416
     23 CAU        36.2692   34.3900   11.2040 C.ar        1 GSZ      -0.0602
     24 CAV        37.1826   34.0295   10.1959 C.ar        1 GSZ      -0.0686
     25 CAW        37.7054   32.7249   10.1542 C.ar        1 GSZ      -0.0687
     26 CAX        37.3015   31.7781   11.1057 C.ar        1 GSZ      -0.0686
     27 CAY        36.4016   32.1490   12.1326 C.ar        1 GSZ      -0.0602
     28 H1         29.4778   41.6846   15.8190 H           1 GSZ       0.0257
     29 H2         30.8000   42.6532   15.1723 H           1 GSZ       0.0257
     30 H3         30.8215   42.1458   16.8685 H           1 GSZ       0.0257
     31 H4         30.9922   40.3094   14.4237 H           1 GSZ       0.0532
     32 H5         31.2926   38.4183   16.0001 H           1 GSZ       0.0257
     33 H6         29.7889   39.2670   16.3662 H           1 GSZ       0.0257
     34 H7         31.2136   39.5238   17.3830 H           1 GSZ       0.0257
     35 H8         33.0523   38.8411   14.7411 H           1 GSZ       0.1888
     36 H9         35.2543   39.5483   16.1365 H           1 GSZ       0.0820
     37 H10        34.9752   41.6398   14.3596 H           1 GSZ       0.0672
     38 H11        37.5200   40.6303   15.0155 H           1 GSZ       0.2103
     39 H12        36.6619   41.3528   12.5353 H           1 GSZ       0.0654
     40 H13        35.1932   40.4246   11.2056 H           1 GSZ       0.2100
     41 H14        36.8582   38.9134   11.6978 H           1 GSZ       0.0699
     42 H15        38.6290   38.9301   14.1200 H           1 GSZ       0.0589
     43 H16        38.7371   40.3607   13.0878 H           1 GSZ       0.0589
     44 H17        39.1303   37.6623   12.4078 H           1 GSZ       0.2095
     45 H18        37.1468   36.3633   12.6981 H           1 GSZ       0.0663
     46 H19        34.9972   34.4777   15.3677 H           1 GSZ       0.0392
     47 H20        36.5947   34.2498   14.6822 H           1 GSZ       0.0392
     48 H21        34.1080   34.4212   12.8843 H           1 GSZ       0.0442
     49 H22        34.5011   32.9470   13.7189 H           1 GSZ       0.0442
     50 H23        35.8842   35.3348   11.2005 H           1 GSZ       0.0557
     51 H24        37.4639   34.7158    9.4919 H           1 GSZ       0.0599
     52 H25        38.3770   32.4655    9.4248 H           1 GSZ       0.0559
     53 H26        37.6642   30.8240   11.0667 H           1 GSZ       0.0599
     54 H27        36.1353   31.4442   12.8239 H           1 GSZ       0.0557
@<TRIPOS>BOND
     1     1     2   1
     2     2     3   1
     3     2     4   1
     4     4     5   2
     5     4     6  am
     6     6     7   1
     7     7     8   1
     8     7    17   1
     9     8     9   1
    10     8    10   1
    11    10    11   1
    12    10    12   1
    13    12    13   1
    14    12    15   1
    15    13    14   1
    16    15    16   1
    17    15    17   1
    18    16    19   2
    19    17    18   2
    20    18    19   1
    21    19    20   1
    22    20    21   1
    23    21    22   1
    24    22    23  ar
    25    22    27  ar
    26    23    24  ar
    27    24    25  ar
    28    25    26  ar
    29    26    27  ar
    30     1    28   1
    31     1    29   1
    32     1    30   1
    33     2    31   1
    34     3    32   1
    35     3    33   1
    36     3    34   1
    37     6    35   1
    38     7    36   1
    39     8    37   1
    40     9    38   1
    41    10    39   1
    42    11    40   1
    43    12    41   1
    44    13    42   1
    45    13    43   1
    46    14    44   1
    47    16    45   1
    48    20    46   1
    49    20    47   1
    50    21    48   1
    51    21    49   1
    52    23    50   1
    53    24    51   1
    54    25    52   1
    55    26    53   1
    56    27    54   1
@<TRIPOS>SUBSTRUCTURE
     1  GSZ      1

