@<TRIPOS>MOLECULE
2j62_ligand_039
    54    56
SMALL
GAST_HUCK
****
This file was generated by PARSER (from files_GN.cpp)

@<TRIPOS>ATOM
      1 CAZ        30.3519   42.2495   20.6333 C.3         1 GSZ      -0.0456
      2 CAN        28.9145   42.1128   20.0569 C.3         1 GSZ       0.0432
      3 CBA        28.1335   40.9565   20.7406 C.3         1 GSZ      -0.0456
      4 CAL        28.9719   41.9726   18.6019 C.2         1 GSZ       0.1811
      5 OAM        29.2205   40.8756   18.1198 O.2         1 GSZ      -0.3966
      6 NAK        28.8614   43.0581   17.8401 N.am        1 GSZ      -0.2638
      7 CAC        28.9579   43.2333   16.4142 C.3         1 GSZ       0.1446
      8 CAB        27.5299   43.3169   15.7776 C.3         1 GSZ       0.1222
      9 OAG        27.4938   44.3349   14.7813 O.3         1 GSZ      -0.3842
     10 CAA        27.0359   41.9515   15.1974 C.3         1 GSZ       0.1176
     11 OAH        26.6626   41.1079   16.2910 O.3         1 GSZ      -0.3858
     12 CAF        28.0810   41.1888   14.3125 C.3         1 GSZ       0.1168
     13 CAI        28.0161   41.5224   12.7892 C.3         1 GSZ       0.0768
     14 OAJ        27.8222   42.8994   12.4918 O.3         1 GSZ      -0.3919
     15 NAE        29.4216   41.3578   14.8190 N.pl3       1 GSZ      -0.2497
     16 CAQ        30.4735   40.5756   14.5198 C.2         1 GSZ       0.0236
     17 CAD        29.8424   42.2571   15.7319 C.2         1 GSZ       0.1393
     18 NAO        31.1563   42.0783   15.9781 N.2         1 GSZ      -0.3317
     19 CAP        31.5655   41.0246   15.2532 C.2         1 GSZ      -0.0178
     20 CAR        32.8949   40.3844   15.3194 C.3         1 GSZ      -0.0191
     21 CAS        33.5157   39.9928   13.9385 C.3         1 GSZ      -0.0133
     22 CAT        34.7224   40.7781   13.5630 C.ar        1 GSZ      -0.0416
     23 CAU        35.9829   40.1564   13.4047 C.ar        1 GSZ      -0.0602
     24 CAV        37.1121   40.9031   13.0203 C.ar        1 GSZ      -0.0686
     25 CAW        36.9903   42.2840   12.7744 C.ar        1 GSZ      -0.0687
     26 CAX        35.7409   42.9120   12.9165 C.ar        1 GSZ      -0.0686
     27 CAY        34.6154   42.1656   13.3141 C.ar        1 GSZ      -0.0602
     28 H1         30.3101   42.4329   21.7101 H           1 GSZ       0.0257
     29 H2         30.8759   43.0917   20.1659 H           1 GSZ       0.0257
     30 H3         30.9364   41.3389   20.4572 H           1 GSZ       0.0257
     31 H4         28.3857   43.0398   20.3145 H           1 GSZ       0.0532
     32 H5         27.1202   40.8986   20.3377 H           1 GSZ       0.0257
     33 H6         28.0703   41.1366   21.8135 H           1 GSZ       0.0257
     34 H7         28.6270   39.9976   20.5782 H           1 GSZ       0.0257
     35 H8         28.6568   43.8730   18.3207 H           1 GSZ       0.1888
     36 H9         29.4403   44.2100   16.2887 H           1 GSZ       0.0820
     37 H10        26.8057   43.6306   16.5360 H           1 GSZ       0.0672
     38 H11        27.3434   45.1773   15.2831 H           1 GSZ       0.2103
     39 H12        26.1214   42.1148   14.6155 H           1 GSZ       0.0654
     40 H13        25.7469   41.3988   16.5182 H           1 GSZ       0.2100
     41 H14        27.8430   40.1237   14.3930 H           1 GSZ       0.0699
     42 H15        27.2080   40.9372   12.3344 H           1 GSZ       0.0589
     43 H16        28.9431   41.2165   12.3042 H           1 GSZ       0.0589
     44 H17        27.1745   43.1932   13.1798 H           1 GSZ       0.2095
     45 H18        30.4598   39.7729   13.8863 H           1 GSZ       0.0663
     46 H19        32.7790   39.4788   15.9226 H           1 GSZ       0.0392
     47 H20        33.5700   41.0334   15.8833 H           1 GSZ       0.0392
     48 H21        32.7890   40.1045   13.1278 H           1 GSZ       0.0442
     49 H22        33.7613   38.9263   13.9693 H           1 GSZ       0.0442
     50 H23        36.0962   39.1510   13.5705 H           1 GSZ       0.0557
     51 H24        38.0214   40.4458   12.9086 H           1 GSZ       0.0599
     52 H25        37.8032   42.8250   12.4826 H           1 GSZ       0.0559
     53 H26        35.6446   43.9108   12.7190 H           1 GSZ       0.0599
     54 H27        33.7167   42.6433   13.4182 H           1 GSZ       0.0557
@<TRIPOS>BOND
     1     1     2   1
     2     2     3   1
     3     2     4   1
     4     4     5   2
     5     4     6  am
     6     6     7   1
     7     7     8   1
     8     7    17   1
     9     8     9   1
    10     8    10   1
    11    10    11   1
    12    10    12   1
    13    12    13   1
    14    12    15   1
    15    13    14   1
    16    15    16   1
    17    15    17   1
    18    16    19   2
    19    17    18   2
    20    18    19   1
    21    19    20   1
    22    20    21   1
    23    21    22   1
    24    22    23  ar
    25    22    27  ar
    26    23    24  ar
    27    24    25  ar
    28    25    26  ar
    29    26    27  ar
    30     1    28   1
    31     1    29   1
    32     1    30   1
    33     2    31   1
    34     3    32   1
    35     3    33   1
    36     3    34   1
    37     6    35   1
    38     7    36   1
    39     8    37   1
    40     9    38   1
    41    10    39   1
    42    11    40   1
    43    12    41   1
    44    13    42   1
    45    13    43   1
    46    14    44   1
    47    16    45   1
    48    20    46   1
    49    20    47   1
    50    21    48   1
    51    21    49   1
    52    23    50   1
    53    24    51   1
    54    25    52   1
    55    26    53   1
    56    27    54   1
@<TRIPOS>SUBSTRUCTURE
     1  GSZ      1

