@<TRIPOS>MOLECULE
2j62_ligand_020
    54    56
SMALL
GAST_HUCK
****
This file was generated by PARSER (from files_GN.cpp)

@<TRIPOS>ATOM
      1 CAZ        39.7277   35.7261    8.5411 C.3         1 GSZ      -0.0456
      2 CAN        39.4400   35.5962   10.0623 C.3         1 GSZ       0.0432
      3 CBA        38.6695   34.2862   10.3773 C.3         1 GSZ      -0.0456
      4 CAL        38.7355   36.7627   10.5860 C.2         1 GSZ       0.1811
      5 OAM        39.2112   37.3509   11.5472 O.2         1 GSZ      -0.3966
      6 NAK        37.5840   37.1614   10.0545 N.am        1 GSZ      -0.2638
      7 CAC        36.7516   38.2791   10.4093 C.3         1 GSZ       0.1446
      8 CAB        37.2568   39.6444    9.8185 C.3         1 GSZ       0.1222
      9 OAG        36.1629   40.3529    9.2321 O.3         1 GSZ      -0.3842
     10 CAA        37.9569   40.5941   10.8448 C.3         1 GSZ       0.1176
     11 OAH        39.2709   40.1239   11.1036 O.3         1 GSZ      -0.3858
     12 CAF        37.1818   40.7114   12.1987 C.3         1 GSZ       0.1168
     13 CAI        35.9694   41.7121   12.1456 C.3         1 GSZ       0.0768
     14 OAJ        36.1393   42.8165   13.0358 O.3         1 GSZ      -0.3919
     15 NAE        36.7663   39.4083   12.6526 N.pl3       1 GSZ      -0.2497
     16 CAQ        36.4821   39.0474   13.9171 C.2         1 GSZ       0.0236
     17 CAD        36.4818   38.3466   11.8679 C.2         1 GSZ       0.1393
     18 NAO        35.9466   37.3542   12.6022 N.2         1 GSZ      -0.3317
     19 CAP        35.9252   37.7741   13.8779 C.2         1 GSZ      -0.0178
     20 CAR        35.3081   37.0300   15.0009 C.3         1 GSZ      -0.0191
     21 CAS        33.7527   37.1382   15.0475 C.3         1 GSZ      -0.0133
     22 CAT        33.2037   38.4171   15.6030 C.ar        1 GSZ      -0.0416
     23 CAU        33.4574   39.6569   14.9594 C.ar        1 GSZ      -0.0602
     24 CAV        33.0307   40.8738   15.5291 C.ar        1 GSZ      -0.0686
     25 CAW        32.2430   40.8657   16.6953 C.ar        1 GSZ      -0.0687
     26 CAX        31.8823   39.6357   17.2814 C.ar        1 GSZ      -0.0686
     27 CAY        32.3766   38.4234   16.7567 C.ar        1 GSZ      -0.0602
     28 H1         40.3134   34.8739    8.1938 H           1 GSZ       0.0257
     29 H2         40.2989   36.6322    8.3371 H           1 GSZ       0.0257
     30 H3         38.7994   35.7608    7.9670 H           1 GSZ       0.0257
     31 H4         40.4112   35.5129   10.5582 H           1 GSZ       0.0532
     32 H5         38.5142   34.1831   11.4545 H           1 GSZ       0.0257
     33 H6         39.2448   33.4205   10.0373 H           1 GSZ       0.0257
     34 H7         37.6964   34.2712    9.8824 H           1 GSZ       0.0257
     35 H8         37.2527   36.6289    9.3108 H           1 GSZ       0.1888
     36 H9         35.7911   38.0460    9.9355 H           1 GSZ       0.0820
     37 H10        37.9588   39.4509    9.0035 H           1 GSZ       0.0672
     38 H11        35.8208   39.7720    8.5180 H           1 GSZ       0.2103
     39 H12        38.0695   41.5814   10.3965 H           1 GSZ       0.0654
     40 H13        39.7013   40.8246   11.6370 H           1 GSZ       0.2100
     41 H14        37.8933   41.0971   12.9373 H           1 GSZ       0.0699
     42 H15        35.0355   41.2192   12.4235 H           1 GSZ       0.0589
     43 H16        35.8231   42.1305   11.1496 H           1 GSZ       0.0589
     44 H17        36.8194   43.3870   12.6188 H           1 GSZ       0.2095
     45 H18        36.5488   39.6468   14.7450 H           1 GSZ       0.0663
     46 H19        35.7276   37.3721   15.9538 H           1 GSZ       0.0392
     47 H20        35.5845   35.9757   14.8850 H           1 GSZ       0.0392
     48 H21        33.4001   36.2945   15.6484 H           1 GSZ       0.0442
     49 H22        33.3463   36.9836   14.0430 H           1 GSZ       0.0442
     50 H23        33.9566   39.6880   14.0667 H           1 GSZ       0.0557
     51 H24        33.2803   41.7609   15.0811 H           1 GSZ       0.0599
     52 H25        31.9028   41.7491   17.0869 H           1 GSZ       0.0559
     53 H26        31.2740   39.6240   18.1009 H           1 GSZ       0.0599
     54 H27        32.1023   37.5439   17.2033 H           1 GSZ       0.0557
@<TRIPOS>BOND
     1     1     2   1
     2     2     3   1
     3     2     4   1
     4     4     5   2
     5     4     6  am
     6     6     7   1
     7     7     8   1
     8     7    17   1
     9     8     9   1
    10     8    10   1
    11    10    11   1
    12    10    12   1
    13    12    13   1
    14    12    15   1
    15    13    14   1
    16    15    16   1
    17    15    17   1
    18    16    19   2
    19    17    18   2
    20    18    19   1
    21    19    20   1
    22    20    21   1
    23    21    22   1
    24    22    23  ar
    25    22    27  ar
    26    23    24  ar
    27    24    25  ar
    28    25    26  ar
    29    26    27  ar
    30     1    28   1
    31     1    29   1
    32     1    30   1
    33     2    31   1
    34     3    32   1
    35     3    33   1
    36     3    34   1
    37     6    35   1
    38     7    36   1
    39     8    37   1
    40     9    38   1
    41    10    39   1
    42    11    40   1
    43    12    41   1
    44    13    42   1
    45    13    43   1
    46    14    44   1
    47    16    45   1
    48    20    46   1
    49    20    47   1
    50    21    48   1
    51    21    49   1
    52    23    50   1
    53    24    51   1
    54    25    52   1
    55    26    53   1
    56    27    54   1
@<TRIPOS>SUBSTRUCTURE
     1  GSZ      1

