@<TRIPOS>MOLECULE
2j62_ligand_050
    54    56
SMALL
GAST_HUCK
****
This file was generated by PARSER (from files_GN.cpp)

@<TRIPOS>ATOM
      1 CAZ        25.0877   39.8737   16.7586 C.3         1 GSZ      -0.0456
      2 CAN        26.1596   40.9965   16.7683 C.3         1 GSZ       0.0432
      3 CBA        26.5175   41.4693   15.3272 C.3         1 GSZ      -0.0456
      4 CAL        27.3435   40.5526   17.4911 C.2         1 GSZ       0.1811
      5 OAM        28.2447   39.9854   16.8696 O.2         1 GSZ      -0.3966
      6 NAK        27.4711   40.7643   18.7988 N.am        1 GSZ      -0.2638
      7 CAC        28.6244   40.4435   19.5882 C.3         1 GSZ       0.1446
      8 CAB        28.4952   41.0004   21.0302 C.3         1 GSZ       0.1222
      9 OAG        27.4754   40.2584   21.7022 O.3         1 GSZ      -0.3842
     10 CAA        29.8385   40.8919   21.8106 C.3         1 GSZ       0.1176
     11 OAH        29.6789   41.4067   23.1375 O.3         1 GSZ      -0.3858
     12 CAF        31.0012   41.6327   21.0570 C.3         1 GSZ       0.1168
     13 CAI        32.3868   41.2823   21.6782 C.3         1 GSZ       0.0768
     14 OAJ        32.8586   39.9974   21.2675 O.3         1 GSZ      -0.3919
     15 NAE        30.9544   41.4125   19.6249 N.pl3       1 GSZ      -0.2497
     16 CAQ        31.8770   41.7078   18.6826 C.2         1 GSZ       0.0236
     17 CAD        29.8702   40.9451   18.9601 C.2         1 GSZ       0.1393
     18 NAO        30.0906   40.9309   17.6363 N.2         1 GSZ      -0.3317
     19 CAP        31.3311   41.4058   17.4365 C.2         1 GSZ      -0.0178
     20 CAR        31.9126   41.4946   16.0782 C.3         1 GSZ      -0.0191
     21 CAS        32.7367   40.2486   15.6609 C.3         1 GSZ      -0.0133
     22 CAT        32.1120   38.9023   15.8277 C.ar        1 GSZ      -0.0416
     23 CAU        32.9348   37.7429   15.8751 C.ar        1 GSZ      -0.0602
     24 CAV        32.3729   36.4536   15.9392 C.ar        1 GSZ      -0.0686
     25 CAW        30.9773   36.2919   16.0179 C.ar        1 GSZ      -0.0687
     26 CAX        30.1466   37.4238   15.9834 C.ar        1 GSZ      -0.0686
     27 CAY        30.7061   38.7110   15.8443 C.ar        1 GSZ      -0.0602
     28 H1         24.2073   40.1988   16.2053 H           1 GSZ       0.0257
     29 H2         24.7845   39.6302   17.7812 H           1 GSZ       0.0257
     30 H3         25.4729   38.9718   16.2848 H           1 GSZ       0.0257
     31 H4         25.7219   41.8608   17.2912 H           1 GSZ       0.0532
     32 H5         27.2722   42.2580   15.3662 H           1 GSZ       0.0257
     33 H6         25.6369   41.8610   14.8176 H           1 GSZ       0.0257
     34 H7         26.9121   40.6432   14.7313 H           1 GSZ       0.0257
     35 H8         26.7191   41.1639   19.2633 H           1 GSZ       0.1888
     36 H9         28.7194   39.3515   19.6652 H           1 GSZ       0.0820
     37 H10        28.1934   42.0520   20.9939 H           1 GSZ       0.0672
     38 H11        27.3980   40.6782   22.5892 H           1 GSZ       0.2103
     39 H12        30.0860   39.8263   21.9038 H           1 GSZ       0.0654
     40 H13        29.0560   42.1689   23.0540 H           1 GSZ       0.2100
     41 H14        30.8462   42.7041   21.2062 H           1 GSZ       0.0699
     42 H15        32.3385   41.3078   22.7720 H           1 GSZ       0.0589
     43 H16        33.1250   42.0257   21.3645 H           1 GSZ       0.0589
     44 H17        32.2558   39.3575   21.6987 H           1 GSZ       0.2095
     45 H18        32.8127   42.0837   18.8514 H           1 GSZ       0.0663
     46 H19        32.5430   42.3858   16.0105 H           1 GSZ       0.0392
     47 H20        31.1021   41.6418   15.3548 H           1 GSZ       0.0392
     48 H21        33.6755   40.2811   16.2168 H           1 GSZ       0.0442
     49 H22        32.9924   40.3476   14.6022 H           1 GSZ       0.0442
     50 H23        33.9547   37.8332   15.8473 H           1 GSZ       0.0557
     51 H24        32.9795   35.6294   15.9342 H           1 GSZ       0.0599
     52 H25        30.5684   35.3621   16.0761 H           1 GSZ       0.0559
     53 H26        29.1278   37.3146   16.0221 H           1 GSZ       0.0599
     54 H27        30.0689   39.5053   15.7590 H           1 GSZ       0.0557
@<TRIPOS>BOND
     1     1     2   1
     2     2     3   1
     3     2     4   1
     4     4     5   2
     5     4     6  am
     6     6     7   1
     7     7     8   1
     8     7    17   1
     9     8     9   1
    10     8    10   1
    11    10    11   1
    12    10    12   1
    13    12    13   1
    14    12    15   1
    15    13    14   1
    16    15    16   1
    17    15    17   1
    18    16    19   2
    19    17    18   2
    20    18    19   1
    21    19    20   1
    22    20    21   1
    23    21    22   1
    24    22    23  ar
    25    22    27  ar
    26    23    24  ar
    27    24    25  ar
    28    25    26  ar
    29    26    27  ar
    30     1    28   1
    31     1    29   1
    32     1    30   1
    33     2    31   1
    34     3    32   1
    35     3    33   1
    36     3    34   1
    37     6    35   1
    38     7    36   1
    39     8    37   1
    40     9    38   1
    41    10    39   1
    42    11    40   1
    43    12    41   1
    44    13    42   1
    45    13    43   1
    46    14    44   1
    47    16    45   1
    48    20    46   1
    49    20    47   1
    50    21    48   1
    51    21    49   1
    52    23    50   1
    53    24    51   1
    54    25    52   1
    55    26    53   1
    56    27    54   1
@<TRIPOS>SUBSTRUCTURE
     1  GSZ      1

