@<TRIPOS>MOLECULE
2j62_ligand_003
    54    56
SMALL
GAST_HUCK
****
This file was generated by PARSER (from files_GN.cpp)

@<TRIPOS>ATOM
      1 CAZ        37.4310   40.2435   22.3851 C.3         1 GSZ      -0.0456
      2 CAN        36.8438   41.5650   21.8115 C.3         1 GSZ       0.0432
      3 CBA        37.4327   42.7765   22.5903 C.3         1 GSZ      -0.0456
      4 CAL        35.3793   41.6151   21.7956 C.2         1 GSZ       0.1811
      5 OAM        34.7089   40.7318   22.3228 O.2         1 GSZ      -0.3966
      6 NAK        34.7791   42.6408   21.2005 N.am        1 GSZ      -0.2638
      7 CAC        33.3791   42.9466   21.1407 C.3         1 GSZ       0.1446
      8 CAB        32.7103   43.0714   22.5455 C.3         1 GSZ       0.1222
      9 OAG        33.2854   44.2057   23.2030 O.3         1 GSZ      -0.3842
     10 CAA        31.1689   43.2310   22.4414 C.3         1 GSZ       0.1176
     11 OAH        30.6393   43.2079   23.7689 O.3         1 GSZ      -0.3858
     12 CAF        30.4890   42.1223   21.5586 C.3         1 GSZ       0.1168
     13 CAI        29.0696   42.5779   21.0955 C.3         1 GSZ       0.0768
     14 OAJ        28.1825   41.4742   20.9304 O.3         1 GSZ      -0.3919
     15 NAE        31.3158   41.7212   20.4377 N.pl3       1 GSZ      -0.2497
     16 CAQ        30.9799   40.9424   19.3898 C.2         1 GSZ       0.0236
     17 CAD        32.6189   42.0376   20.2622 C.2         1 GSZ       0.1393
     18 NAO        33.1043   41.4866   19.1390 N.2         1 GSZ      -0.3317
     19 CAP        32.0858   40.8375   18.5508 C.2         1 GSZ      -0.0178
     20 CAR        32.1633   40.1510   17.2489 C.3         1 GSZ      -0.0191
     21 CAS        32.4052   38.6300   17.4334 C.3         1 GSZ      -0.0133
     22 CAT        32.8475   37.9231   16.2015 C.ar        1 GSZ      -0.0416
     23 CAU        32.2920   36.6713   15.8387 C.ar        1 GSZ      -0.0602
     24 CAV        32.7785   35.9660   14.7206 C.ar        1 GSZ      -0.0686
     25 CAW        33.8165   36.5083   13.9428 C.ar        1 GSZ      -0.0687
     26 CAX        34.3724   37.7552   14.2846 C.ar        1 GSZ      -0.0686
     27 CAY        33.8938   38.4529   15.4095 C.ar        1 GSZ      -0.0602
     28 H1         38.5189   40.2282   22.2694 H           1 GSZ       0.0257
     29 H2         37.0237   39.3888   21.8491 H           1 GSZ       0.0257
     30 H3         37.1866   40.1345   23.4460 H           1 GSZ       0.0257
     31 H4         37.1833   41.6341   20.7688 H           1 GSZ       0.0532
     32 H5         37.1325   43.7210   22.1301 H           1 GSZ       0.0257
     33 H6         38.5250   42.7387   22.5846 H           1 GSZ       0.0257
     34 H7         37.0897   42.7731   23.6278 H           1 GSZ       0.0257
     35 H8         35.3613   43.2679   20.7472 H           1 GSZ       0.1888
     36 H9         33.3118   43.9266   20.6614 H           1 GSZ       0.0820
     37 H10        32.9251   42.1876   23.1498 H           1 GSZ       0.0672
     38 H11        32.7026   44.4131   23.9595 H           1 GSZ       0.2103
     39 H12        30.9648   44.2158   22.0100 H           1 GSZ       0.0654
     40 H13        29.6677   43.2390   23.6690 H           1 GSZ       0.2100
     41 H14        30.3736   41.2342   22.1858 H           1 GSZ       0.0699
     42 H15        29.1375   43.1075   20.1436 H           1 GSZ       0.0589
     43 H16        28.6083   43.2555   21.8149 H           1 GSZ       0.0589
     44 H17        27.7968   41.3357   21.8232 H           1 GSZ       0.2095
     45 H18        30.0685   40.5177   19.2087 H           1 GSZ       0.0663
     46 H19        32.9775   40.5883   16.6651 H           1 GSZ       0.0392
     47 H20        31.2321   40.3018   16.6910 H           1 GSZ       0.0392
     48 H21        31.4804   38.1846   17.8181 H           1 GSZ       0.0442
     49 H22        33.1736   38.4749   18.1962 H           1 GSZ       0.0442
     50 H23        31.5411   36.2532   16.3963 H           1 GSZ       0.0557
     51 H24        32.3718   35.0590   14.4706 H           1 GSZ       0.0599
     52 H25        34.1687   35.9961   13.1342 H           1 GSZ       0.0559
     53 H26        35.1289   38.1497   13.7197 H           1 GSZ       0.0599
     54 H27        34.3320   39.3450   15.6607 H           1 GSZ       0.0557
@<TRIPOS>BOND
     1     1     2   1
     2     2     3   1
     3     2     4   1
     4     4     5   2
     5     4     6  am
     6     6     7   1
     7     7     8   1
     8     7    17   1
     9     8     9   1
    10     8    10   1
    11    10    11   1
    12    10    12   1
    13    12    13   1
    14    12    15   1
    15    13    14   1
    16    15    16   1
    17    15    17   1
    18    16    19   2
    19    17    18   2
    20    18    19   1
    21    19    20   1
    22    20    21   1
    23    21    22   1
    24    22    23  ar
    25    22    27  ar
    26    23    24  ar
    27    24    25  ar
    28    25    26  ar
    29    26    27  ar
    30     1    28   1
    31     1    29   1
    32     1    30   1
    33     2    31   1
    34     3    32   1
    35     3    33   1
    36     3    34   1
    37     6    35   1
    38     7    36   1
    39     8    37   1
    40     9    38   1
    41    10    39   1
    42    11    40   1
    43    12    41   1
    44    13    42   1
    45    13    43   1
    46    14    44   1
    47    16    45   1
    48    20    46   1
    49    20    47   1
    50    21    48   1
    51    21    49   1
    52    23    50   1
    53    24    51   1
    54    25    52   1
    55    26    53   1
    56    27    54   1
@<TRIPOS>SUBSTRUCTURE
     1  GSZ      1

