@<TRIPOS>MOLECULE
2j62_ligand_023
    54    56
SMALL
GAST_HUCK
****
This file was generated by PARSER (from files_GN.cpp)

@<TRIPOS>ATOM
      1 CAZ        40.1002   35.6740   10.0787 C.3         1 GSZ      -0.0456
      2 CAN        38.7990   35.3359   10.8572 C.3         1 GSZ       0.0432
      3 CBA        37.8050   34.5944    9.9176 C.3         1 GSZ      -0.0456
      4 CAL        38.2467   36.5176   11.5281 C.2         1 GSZ       0.1811
      5 OAM        37.0911   36.8642   11.3123 O.2         1 GSZ      -0.3966
      6 NAK        39.0004   37.1971   12.3914 N.am        1 GSZ      -0.2638
      7 CAC        38.6293   38.3382   13.1874 C.3         1 GSZ       0.1446
      8 CAB        37.6842   37.9178   14.3576 C.3         1 GSZ       0.1222
      9 OAG        38.4366   37.1845   15.3305 O.3         1 GSZ      -0.3842
     10 CAA        37.0213   39.1381   15.0536 C.3         1 GSZ       0.1176
     11 OAH        36.0814   38.6759   16.0277 O.3         1 GSZ      -0.3858
     12 CAF        36.3026   40.0954   14.0390 C.3         1 GSZ       0.1168
     13 CAI        36.1328   41.5192   14.6516 C.3         1 GSZ       0.0768
     14 OAJ        37.3171   42.3058   14.5250 O.3         1 GSZ      -0.3919
     15 NAE        36.9661   40.1580   12.7545 N.pl3       1 GSZ      -0.2497
     16 CAQ        36.6426   40.9379   11.7074 C.2         1 GSZ       0.0236
     17 CAD        38.0400   39.4302   12.3797 C.2         1 GSZ       0.1393
     18 NAO        38.4400   39.7893   11.1457 N.2         1 GSZ      -0.3317
     19 CAP        37.5830   40.7232   10.7043 C.2         1 GSZ      -0.0178
     20 CAR        37.6409   41.3906    9.3888 C.3         1 GSZ      -0.0191
     21 CAS        37.7279   40.3752    8.2142 C.3         1 GSZ      -0.0133
     22 CAT        37.7145   41.0328    6.8794 C.ar        1 GSZ      -0.0416
     23 CAU        38.8427   41.0082    6.0224 C.ar        1 GSZ      -0.0602
     24 CAV        38.7945   41.6223    4.7570 C.ar        1 GSZ      -0.0686
     25 CAW        37.6227   42.2797    4.3362 C.ar        1 GSZ      -0.0687
     26 CAX        36.4970   42.3124    5.1740 C.ar        1 GSZ      -0.0686
     27 CAY        36.5408   41.6814    6.4307 C.ar        1 GSZ      -0.0602
     28 H1         40.5050   34.7810    9.5983 H           1 GSZ       0.0257
     29 H2         40.8654   36.0597   10.7549 H           1 GSZ       0.0257
     30 H3         39.8962   36.4204    9.3093 H           1 GSZ       0.0257
     31 H4         39.0679   34.6267   11.6397 H           1 GSZ       0.0532
     32 H5         36.9087   34.2938   10.4647 H           1 GSZ       0.0257
     33 H6         38.2642   33.6938    9.5090 H           1 GSZ       0.0257
     34 H7         37.5192   35.2401    9.0861 H           1 GSZ       0.0257
     35 H8         39.9119   36.8842   12.5033 H           1 GSZ       0.1888
     36 H9         39.5514   38.7377   13.6168 H           1 GSZ       0.0820
     37 H10        36.8897   37.2686   13.9749 H           1 GSZ       0.0672
     38 H11        37.7932   36.5927   15.7750 H           1 GSZ       0.2103
     39 H12        37.8070   39.6802   15.5872 H           1 GSZ       0.0654
     40 H13        36.5231   37.9376   16.5001 H           1 GSZ       0.2100
     41 H14        35.3015   39.6883   13.8557 H           1 GSZ       0.0699
     42 H15        35.8643   41.4602   15.7070 H           1 GSZ       0.0589
     43 H16        35.3297   42.0460   14.1346 H           1 GSZ       0.0589
     44 H17        38.0407   41.7840   14.9336 H           1 GSZ       0.2095
     45 H18        35.8670   41.6060   11.6676 H           1 GSZ       0.0663
     46 H19        38.5149   42.0469    9.3723 H           1 GSZ       0.0392
     47 H20        36.7507   42.0146    9.2765 H           1 GSZ       0.0392
     48 H21        36.8819   39.6833    8.2614 H           1 GSZ       0.0442
     49 H22        38.6346   39.7767    8.3412 H           1 GSZ       0.0442
     50 H23        39.7044   40.5407    6.3110 H           1 GSZ       0.0557
     51 H24        39.6086   41.5889    4.1391 H           1 GSZ       0.0599
     52 H25        37.5879   42.7245    3.4155 H           1 GSZ       0.0559
     53 H26        35.6410   42.7837    4.8705 H           1 GSZ       0.0599
     54 H27        35.7048   41.6970    7.0168 H           1 GSZ       0.0557
@<TRIPOS>BOND
     1     1     2   1
     2     2     3   1
     3     2     4   1
     4     4     5   2
     5     4     6  am
     6     6     7   1
     7     7     8   1
     8     7    17   1
     9     8     9   1
    10     8    10   1
    11    10    11   1
    12    10    12   1
    13    12    13   1
    14    12    15   1
    15    13    14   1
    16    15    16   1
    17    15    17   1
    18    16    19   2
    19    17    18   2
    20    18    19   1
    21    19    20   1
    22    20    21   1
    23    21    22   1
    24    22    23  ar
    25    22    27  ar
    26    23    24  ar
    27    24    25  ar
    28    25    26  ar
    29    26    27  ar
    30     1    28   1
    31     1    29   1
    32     1    30   1
    33     2    31   1
    34     3    32   1
    35     3    33   1
    36     3    34   1
    37     6    35   1
    38     7    36   1
    39     8    37   1
    40     9    38   1
    41    10    39   1
    42    11    40   1
    43    12    41   1
    44    13    42   1
    45    13    43   1
    46    14    44   1
    47    16    45   1
    48    20    46   1
    49    20    47   1
    50    21    48   1
    51    21    49   1
    52    23    50   1
    53    24    51   1
    54    25    52   1
    55    26    53   1
    56    27    54   1
@<TRIPOS>SUBSTRUCTURE
     1  GSZ      1

