@<TRIPOS>MOLECULE
2j78_ligand_024
    25    25
SMALL
GAST_HUCK
****
This file was generated by PARSER (from files_GN.cpp)

@<TRIPOS>ATOM
      1 C1         -0.2734    8.9393    8.3914 C.2         1 GOX       0.1322
      2 N1          0.5488    7.8875    8.5437 N.2         1 GOX      -0.2068
      3 C2         -1.5690    8.9149    9.1118 C.3         1 GOX       0.1503
      4 N5          0.0984    9.9728    7.5991 N.pl3       1 GOX      -0.2990
      5 O7          1.7250    7.7763    7.9907 O.3         1 GOX      -0.3046
      6 O2         -2.4680    8.0239    8.4502 O.3         1 GOX      -0.3713
      7 C3         -2.1755   10.3431    9.2702 C.3         1 GOX       0.1233
      8 O3         -1.4830   10.9982   10.3326 O.3         1 GOX      -0.3841
      9 C4         -2.0873   11.1556    7.9488 C.3         1 GOX       0.1104
     10 O4         -2.9882   10.6141    6.9780 O.3         1 GOX      -0.3866
     11 C5         -0.6401   11.1901    7.3760 C.3         1 GOX       0.0898
     12 C6          0.2088   12.3722    7.9101 C.3         1 GOX       0.0694
     13 O6          1.4349   12.4472    7.1975 O.3         1 GOX      -0.3927
     14 H1         -1.4145    8.5037   10.1148 H           1 GOX       0.0843
     15 H2          0.9648    9.9048    7.1708 H           1 GOX       0.1812
     16 H3          2.1390    7.0041    8.4271 H           1 GOX       0.2523
     17 H4         -2.6331    8.4087    7.5667 H           1 GOX       0.2137
     18 H5         -3.2220   10.2574    9.5724 H           1 GOX       0.0673
     19 H6         -1.3408   11.9370   10.0697 H           1 GOX       0.2103
     20 H7         -2.4344   12.1669    8.1389 H           1 GOX       0.0646
     21 H8         -2.4303   10.2075    6.2838 H           1 GOX       0.2100
     22 H9         -0.7131   11.3252    6.2960 H           1 GOX       0.0603
     23 H10         0.4307   12.2394    8.9682 H           1 GOX       0.0581
     24 H11        -0.3162   13.3272    7.7945 H           1 GOX       0.0581
     25 H12         1.2866   13.0950    6.4769 H           1 GOX       0.2095
@<TRIPOS>BOND
     1     1     2   2
     2     1     3   1
     3     1     4   1
     4     2     5   1
     5     3     6   1
     6     3     7   1
     7     4    11   1
     8     7     8   1
     9     7     9   1
    10     9    10   1
    11     9    11   1
    12    11    12   1
    13    12    13   1
    14     3    14   1
    15     4    15   1
    16     5    16   1
    17     6    17   1
    18     7    18   1
    19     8    19   1
    20     9    20   1
    21    10    21   1
    22    11    22   1
    23    12    23   1
    24    12    24   1
    25    13    25   1
@<TRIPOS>SUBSTRUCTURE
     1  GOX      1

