@<TRIPOS>MOLECULE
2j78_ligand_042
    25    25
SMALL
GAST_HUCK
****
This file was generated by PARSER (from files_GN.cpp)

@<TRIPOS>ATOM
      1 C1         -1.0032    8.0155   13.3906 C.2         1 GOX       0.1322
      2 N1         -0.2853    7.9006   12.2569 N.2         1 GOX      -0.2068
      3 C2         -0.9459    9.2242   14.2572 C.3         1 GOX       0.1503
      4 N5         -1.8367    6.9799   13.6536 N.pl3       1 GOX      -0.2990
      5 O7          0.5734    8.7641   11.7910 O.3         1 GOX      -0.3046
      6 O2          0.4144    9.5531   14.5318 O.3         1 GOX      -0.3713
      7 C3         -1.6873    9.0453   15.6169 C.3         1 GOX       0.1233
      8 O3         -1.8822   10.3145   16.2543 O.3         1 GOX      -0.3841
      9 C4         -3.0381    8.3167   15.4014 C.3         1 GOX       0.1104
     10 O4         -3.7450    8.1891   16.6364 O.3         1 GOX      -0.3866
     11 C5         -2.8187    6.9369   14.7086 C.3         1 GOX       0.0898
     12 C6         -4.1419    6.3605   14.1288 C.3         1 GOX       0.0694
     13 O6         -4.1289    4.9384   14.0974 O.3         1 GOX      -0.3927
     14 H1         -1.4052   10.0483   13.7004 H           1 GOX       0.0843
     15 H2         -1.8143    6.2268   13.0447 H           1 GOX       0.1812
     16 H3          1.2160    8.9148   12.5121 H           1 GOX       0.2523
     17 H4          0.5332   10.4696   14.2114 H           1 GOX       0.2137
     18 H5         -1.0677    8.4368   16.2837 H           1 GOX       0.0673
     19 H6         -2.5605   10.7706   15.7124 H           1 GOX       0.2103
     20 H7         -3.6552    8.9463   14.7623 H           1 GOX       0.0646
     21 H8         -3.1636    7.6613   17.2246 H           1 GOX       0.2100
     22 H9         -2.4301    6.2478   15.4616 H           1 GOX       0.0603
     23 H10        -4.3158    6.7274   13.1189 H           1 GOX       0.0581
     24 H11        -4.9953    6.6599   14.7409 H           1 GOX       0.0581
     25 H12        -3.4363    4.6863   13.4520 H           1 GOX       0.2095
@<TRIPOS>BOND
     1     1     2   2
     2     1     3   1
     3     1     4   1
     4     2     5   1
     5     3     6   1
     6     3     7   1
     7     4    11   1
     8     7     8   1
     9     7     9   1
    10     9    10   1
    11     9    11   1
    12    11    12   1
    13    12    13   1
    14     3    14   1
    15     4    15   1
    16     5    16   1
    17     6    17   1
    18     7    18   1
    19     8    19   1
    20     9    20   1
    21    10    21   1
    22    11    22   1
    23    12    23   1
    24    12    24   1
    25    13    25   1
@<TRIPOS>SUBSTRUCTURE
     1  GOX      1

