@<TRIPOS>MOLECULE
2j78_ligand_015
    25    25
SMALL
GAST_HUCK
****
This file was generated by PARSER (from files_GN.cpp)

@<TRIPOS>ATOM
      1 C1         -1.9007    8.8129   16.1267 C.2         1 GOX       0.1322
      2 N1         -1.7816   10.0532   15.6200 N.2         1 GOX      -0.2068
      3 C2         -3.0124    7.9502   15.6737 C.3         1 GOX       0.1503
      4 N5         -1.0287    8.3390   17.0536 N.pl3       1 GOX      -0.2990
      5 O7         -0.8737   10.8959   16.0111 O.3         1 GOX      -0.3046
      6 O2         -4.0690    8.0974   16.6216 O.3         1 GOX      -0.3713
      7 C3         -2.5836    6.4526   15.5092 C.3         1 GOX       0.1233
      8 O3         -2.2047    6.2200   14.1441 O.3         1 GOX      -0.3841
      9 C4         -1.4078    5.9959   16.4437 C.3         1 GOX       0.1104
     10 O4         -1.6152    4.6699   16.9304 O.3         1 GOX      -0.3866
     11 C5         -1.1242    7.0104   17.6064 C.3         1 GOX       0.0898
     12 C6          0.1611    6.6288   18.3968 C.3         1 GOX       0.0694
     13 O6          0.5829    7.6782   19.2737 O.3         1 GOX      -0.3927
     14 H1         -3.4147    8.3225   14.7126 H           1 GOX       0.0843
     15 H2         -0.2805    8.8983   17.3179 H           1 GOX       0.1812
     16 H3         -0.6139   11.4027   15.2117 H           1 GOX       0.2523
     17 H4         -3.6988    7.8078   17.4879 H           1 GOX       0.2137
     18 H5         -3.4636    5.8202   15.6991 H           1 GOX       0.0673
     19 H6         -1.4351    6.8107   13.9937 H           1 GOX       0.2103
     20 H7         -0.4912    5.9424   15.8335 H           1 GOX       0.0646
     21 H8         -2.4785    4.6830   17.4029 H           1 GOX       0.2100
     22 H9         -1.9721    6.9754   18.2986 H           1 GOX       0.0603
     23 H10         0.9947    6.4471   17.6933 H           1 GOX       0.0581
     24 H11        -0.0181    5.7173   18.9884 H           1 GOX       0.0581
     25 H12        -0.0117    7.6635   20.0600 H           1 GOX       0.2095
@<TRIPOS>BOND
     1     1     2   2
     2     1     3   1
     3     1     4   1
     4     2     5   1
     5     3     6   1
     6     3     7   1
     7     4    11   1
     8     7     8   1
     9     7     9   1
    10     9    10   1
    11     9    11   1
    12    11    12   1
    13    12    13   1
    14     3    14   1
    15     4    15   1
    16     5    16   1
    17     6    17   1
    18     7    18   1
    19     8    19   1
    20     9    20   1
    21    10    21   1
    22    11    22   1
    23    12    23   1
    24    12    24   1
    25    13    25   1
@<TRIPOS>SUBSTRUCTURE
     1  GOX      1

