@<TRIPOS>MOLECULE
2j78_ligand_026
    25    25
SMALL
GAST_HUCK
****
This file was generated by PARSER (from files_GN.cpp)

@<TRIPOS>ATOM
      1 C1         -0.4176    8.4086   13.7978 C.2         1 GOX       0.1322
      2 N1          0.4938    8.7306   12.8563 N.2         1 GOX      -0.2068
      3 C2         -0.2540    7.1312   14.5448 C.3         1 GOX       0.1503
      4 N5         -1.4246    9.2734   14.0673 N.pl3       1 GOX      -0.2990
      5 O7          0.4496    9.8212   12.1392 O.3         1 GOX      -0.3046
      6 O2          0.0185    6.0563   13.6419 O.3         1 GOX      -0.3713
      7 C3         -1.5218    6.7652   15.3691 C.3         1 GOX       0.1233
      8 O3         -1.2188    5.7003   16.2763 O.3         1 GOX      -0.3841
      9 C4         -2.0463    8.0054   16.1401 C.3         1 GOX       0.1104
     10 O4         -3.2066    7.6282   16.8872 O.3         1 GOX      -0.3866
     11 C5         -2.3745    9.1555   15.1367 C.3         1 GOX       0.0898
     12 C6         -2.5267   10.5389   15.8266 C.3         1 GOX       0.0694
     13 O6         -1.2723   11.1144   16.1787 O.3         1 GOX      -0.3927
     14 H1          0.6017    7.2362   15.2186 H           1 GOX       0.0843
     15 H2         -1.4795   10.0672   13.5088 H           1 GOX       0.1812
     16 H3          1.0313   10.4537   12.6098 H           1 GOX       0.2523
     17 H4          0.9378    6.2025   13.3346 H           1 GOX       0.2137
     18 H5         -2.3070    6.4104   14.6919 H           1 GOX       0.0673
     19 H6         -2.0881    5.3951   16.6160 H           1 GOX       0.2103
     20 H7         -1.2772    8.3277   16.8470 H           1 GOX       0.0646
     21 H8         -3.2801    8.2868   17.6066 H           1 GOX       0.2100
     22 H9         -3.3302    8.9147   14.6654 H           1 GOX       0.0603
     23 H10        -3.1203   10.4398   16.7330 H           1 GOX       0.0581
     24 H11        -3.0410   11.2339   15.1612 H           1 GOX       0.0581
     25 H12        -0.8407   11.3798   15.3353 H           1 GOX       0.2095
@<TRIPOS>BOND
     1     1     2   2
     2     1     3   1
     3     1     4   1
     4     2     5   1
     5     3     6   1
     6     3     7   1
     7     4    11   1
     8     7     8   1
     9     7     9   1
    10     9    10   1
    11     9    11   1
    12    11    12   1
    13    12    13   1
    14     3    14   1
    15     4    15   1
    16     5    16   1
    17     6    17   1
    18     7    18   1
    19     8    19   1
    20     9    20   1
    21    10    21   1
    22    11    22   1
    23    12    23   1
    24    12    24   1
    25    13    25   1
@<TRIPOS>SUBSTRUCTURE
     1  GOX      1

