@<TRIPOS>MOLECULE
2j78_ligand_050
    25    25
SMALL
GAST_HUCK
****
This file was generated by PARSER (from files_GN.cpp)

@<TRIPOS>ATOM
      1 C1         -0.6896   11.2297   11.0429 C.2         1 GOX       0.1322
      2 N1         -1.3569   11.5978   12.1582 N.2         1 GOX      -0.2068
      3 C2         -1.1411    9.9876   10.3659 C.3         1 GOX       0.1503
      4 N5          0.3492   11.9736   10.5960 N.pl3       1 GOX      -0.2990
      5 O7         -1.0822   12.6615   12.8733 O.3         1 GOX      -0.3046
      6 O2         -0.8236    8.8678   11.1988 O.3         1 GOX      -0.3713
      7 C3         -0.5150    9.7736    8.9574 C.3         1 GOX       0.1233
      8 O3         -1.2582   10.4789    7.9646 O.3         1 GOX      -0.3841
      9 C4          0.9687   10.2263    8.9147 C.3         1 GOX       0.1104
     10 O4          1.7572    9.3191    9.6957 O.3         1 GOX      -0.3866
     11 C5          1.1598   11.6851    9.4567 C.3         1 GOX       0.0898
     12 C6          0.9191   12.7943    8.3989 C.3         1 GOX       0.0694
     13 O6          1.7062   12.5551    7.2288 O.3         1 GOX      -0.3927
     14 H1         -2.2333   10.0179   10.2589 H           1 GOX       0.0843
     15 H2          0.5321   12.8014   11.0694 H           1 GOX       0.1812
     16 H3         -0.4120   12.3459   13.5176 H           1 GOX       0.2523
     17 H4         -1.3927    8.9565   11.9939 H           1 GOX       0.2137
     18 H5         -0.5699    8.7160    8.6959 H           1 GOX       0.0673
     19 H6         -2.1484   10.0676    7.9532 H           1 GOX       0.2103
     20 H7          1.3410   10.1531    7.8901 H           1 GOX       0.0646
     21 H8          1.8433    8.5119    9.1317 H           1 GOX       0.2100
     22 H9          2.2035   11.7791    9.7817 H           1 GOX       0.0603
     23 H10         1.2142   13.7669    8.8028 H           1 GOX       0.0581
     24 H11        -0.1321   12.8444    8.1183 H           1 GOX       0.0581
     25 H12         1.3919   13.1900    6.5435 H           1 GOX       0.2095
@<TRIPOS>BOND
     1     1     2   2
     2     1     3   1
     3     1     4   1
     4     2     5   1
     5     3     6   1
     6     3     7   1
     7     4    11   1
     8     7     8   1
     9     7     9   1
    10     9    10   1
    11     9    11   1
    12    11    12   1
    13    12    13   1
    14     3    14   1
    15     4    15   1
    16     5    16   1
    17     6    17   1
    18     7    18   1
    19     8    19   1
    20     9    20   1
    21    10    21   1
    22    11    22   1
    23    12    23   1
    24    12    24   1
    25    13    25   1
@<TRIPOS>SUBSTRUCTURE
     1  GOX      1

