@<TRIPOS>MOLECULE
2j78_ligand_021
    25    25
SMALL
GAST_HUCK
****
This file was generated by PARSER (from files_GN.cpp)

@<TRIPOS>ATOM
      1 C1         -0.7362   10.8186   12.3439 C.2         1 GOX       0.1322
      2 N1         -1.0765   11.7450   13.2556 N.2         1 GOX      -0.2068
      3 C2         -0.5306    9.3781   12.6352 C.3         1 GOX       0.1503
      4 N5         -0.5921   11.2503   11.0678 N.pl3       1 GOX      -0.2990
      5 O7         -1.2216   11.5187   14.5252 O.3         1 GOX      -0.3046
      6 O2          0.8756    9.1060   12.6114 O.3         1 GOX      -0.3713
      7 C3         -1.2339    8.4957   11.5528 C.3         1 GOX       0.1233
      8 O3         -2.6013    8.2808   11.9111 O.3         1 GOX      -0.3841
      9 C4         -1.1691    9.0826   10.0929 C.3         1 GOX       0.1104
     10 O4         -0.7155    8.0614    9.2012 O.3         1 GOX      -0.3866
     11 C5         -0.2727   10.3627    9.9907 C.3         1 GOX       0.0898
     12 C6         -0.4043   11.0955    8.6309 C.3         1 GOX       0.0694
     13 O6          0.4194   12.2621    8.5690 O.3         1 GOX      -0.3927
     14 H1         -0.8926    9.1266   13.6387 H           1 GOX       0.0843
     15 H2         -0.7449   12.1863   10.8795 H           1 GOX       0.1812
     16 H3         -0.3156   11.6841   14.8688 H           1 GOX       0.2523
     17 H4          1.3199    9.9310   12.9022 H           1 GOX       0.2137
     18 H5         -0.7639    7.5078   11.5686 H           1 GOX       0.0673
     19 H6         -2.5917    7.5744   12.5900 H           1 GOX       0.2103
     20 H7         -2.1815    9.3562    9.7802 H           1 GOX       0.0646
     21 H8         -0.9534    8.3377    8.2882 H           1 GOX       0.2100
     22 H9          0.7709   10.0586   10.0981 H           1 GOX       0.0603
     23 H10        -1.4413   11.3949    8.4517 H           1 GOX       0.0581
     24 H11        -0.0927   10.4303    7.8203 H           1 GOX       0.0581
     25 H12         0.0296   12.9059    9.2010 H           1 GOX       0.2095
@<TRIPOS>BOND
     1     1     2   2
     2     1     3   1
     3     1     4   1
     4     2     5   1
     5     3     6   1
     6     3     7   1
     7     4    11   1
     8     7     8   1
     9     7     9   1
    10     9    10   1
    11     9    11   1
    12    11    12   1
    13    12    13   1
    14     3    14   1
    15     4    15   1
    16     5    16   1
    17     6    17   1
    18     7    18   1
    19     8    19   1
    20     9    20   1
    21    10    21   1
    22    11    22   1
    23    12    23   1
    24    12    24   1
    25    13    25   1
@<TRIPOS>SUBSTRUCTURE
     1  GOX      1

