@<TRIPOS>MOLECULE
2j78_ligand_018
    25    25
SMALL
GAST_HUCK
****
This file was generated by PARSER (from files_GN.cpp)

@<TRIPOS>ATOM
      1 C1          0.3035   11.1081   10.4387 C.2         1 GOX       0.1322
      2 N1          1.2455   11.9459   10.9162 N.2         1 GOX      -0.2068
      3 C2         -0.5044   10.3254   11.4154 C.3         1 GOX       0.1503
      4 N5          0.0775   11.0486    9.1045 N.pl3       1 GOX      -0.2990
      5 O7          2.0944   12.6412   10.2073 O.3         1 GOX      -0.3046
      6 O2          0.3560    9.6810   12.3578 O.3         1 GOX      -0.3713
      7 C3         -1.3863    9.2394   10.7361 C.3         1 GOX       0.1233
      8 O3         -2.3573    8.7272   11.6515 O.3         1 GOX      -0.3841
      9 C4         -2.0618    9.7988    9.4575 C.3         1 GOX       0.1104
     10 O4         -2.8410    8.7841    8.8207 O.3         1 GOX      -0.3866
     11 C5         -0.9903   10.3401    8.4608 C.3         1 GOX       0.0898
     12 C6         -1.6235   11.2661    7.3833 C.3         1 GOX       0.0694
     13 O6         -0.7700   11.3828    6.2467 O.3         1 GOX      -0.3927
     14 H1         -1.1373   11.0256   11.9631 H           1 GOX       0.0843
     15 H2          0.6527   11.5881    8.5377 H           1 GOX       0.1812
     16 H3          2.4173   12.0407    9.5067 H           1 GOX       0.2523
     17 H4          0.9479   10.3843   12.7049 H           1 GOX       0.2137
     18 H5         -0.7484    8.3957   10.4504 H           1 GOX       0.0673
     19 H6         -3.2304    9.0239   11.3177 H           1 GOX       0.2103
     20 H7         -2.7298   10.6137    9.7506 H           1 GOX       0.0646
     21 H8         -3.7644    8.9417    9.1082 H           1 GOX       0.2100
     22 H9         -0.5373    9.4815    7.9570 H           1 GOX       0.0603
     23 H10        -1.7997   12.2647    7.7899 H           1 GOX       0.0581
     24 H11        -2.5819   10.8704    7.0362 H           1 GOX       0.0581
     25 H12        -0.7661   10.4908    5.8528 H           1 GOX       0.2095
@<TRIPOS>BOND
     1     1     2   2
     2     1     3   1
     3     1     4   1
     4     2     5   1
     5     3     6   1
     6     3     7   1
     7     4    11   1
     8     7     8   1
     9     7     9   1
    10     9    10   1
    11     9    11   1
    12    11    12   1
    13    12    13   1
    14     3    14   1
    15     4    15   1
    16     5    16   1
    17     6    17   1
    18     7    18   1
    19     8    19   1
    20     9    20   1
    21    10    21   1
    22    11    22   1
    23    12    23   1
    24    12    24   1
    25    13    25   1
@<TRIPOS>SUBSTRUCTURE
     1  GOX      1

