@<TRIPOS>MOLECULE
2j78_ligand_030
    25    25
SMALL
GAST_HUCK
****
This file was generated by PARSER (from files_GN.cpp)

@<TRIPOS>ATOM
      1 C1         -1.3414    8.7723   15.8705 C.2         1 GOX       0.1322
      2 N1         -1.1238   10.0932   16.0511 N.2         1 GOX      -0.2068
      3 C2         -1.0500    7.8246   16.9810 C.3         1 GOX       0.1503
      4 N5         -1.8217    8.3394   14.6776 N.pl3       1 GOX      -0.2990
      5 O7         -1.3297   11.0018   15.1338 O.3         1 GOX      -0.3046
      6 O2          0.1294    8.1954   17.7022 O.3         1 GOX      -0.3713
      7 C3         -0.8610    6.3642   16.4889 C.3         1 GOX       0.1233
      8 O3         -0.8728    5.4829   17.6091 O.3         1 GOX      -0.3841
      9 C4         -1.9723    5.9719   15.4918 C.3         1 GOX       0.1104
     10 O4         -1.7984    4.6346   15.0260 O.3         1 GOX      -0.3866
     11 C5         -2.0005    6.9676   14.2875 C.3         1 GOX       0.0898
     12 C6         -3.2634    6.8001   13.3927 C.3         1 GOX       0.0694
     13 O6         -4.4409    6.4271   14.0959 O.3         1 GOX      -0.3927
     14 H1         -1.9032    7.8569   17.6654 H           1 GOX       0.0843
     15 H2         -1.9629    9.0139   13.9928 H           1 GOX       0.1812
     16 H3         -0.4375   11.3552   14.9224 H           1 GOX       0.2523
     17 H4         -0.1304    8.1699   18.6495 H           1 GOX       0.2137
     18 H5          0.1048    6.2680   15.9928 H           1 GOX       0.0673
     19 H6         -0.6036    4.6074   17.2632 H           1 GOX       0.2103
     20 H7         -2.9217    6.0131   16.0307 H           1 GOX       0.0646
     21 H8         -0.9179    4.6257   14.6028 H           1 GOX       0.2100
     22 H9         -1.1275    6.7541   13.6590 H           1 GOX       0.0603
     23 H10        -3.0697    6.0271   12.6510 H           1 GOX       0.0581
     24 H11        -3.4707    7.7191   12.8474 H           1 GOX       0.0581
     25 H12        -4.5032    7.0314   14.8489 H           1 GOX       0.2095
@<TRIPOS>BOND
     1     1     2   2
     2     1     3   1
     3     1     4   1
     4     2     5   1
     5     3     6   1
     6     3     7   1
     7     4    11   1
     8     7     8   1
     9     7     9   1
    10     9    10   1
    11     9    11   1
    12    11    12   1
    13    12    13   1
    14     3    14   1
    15     4    15   1
    16     5    16   1
    17     6    17   1
    18     7    18   1
    19     8    19   1
    20     9    20   1
    21    10    21   1
    22    11    22   1
    23    12    23   1
    24    12    24   1
    25    13    25   1
@<TRIPOS>SUBSTRUCTURE
     1  GOX      1

