@<TRIPOS>MOLECULE
2j78_ligand_059
    25    25
SMALL
GAST_HUCK
****
This file was generated by PARSER (from files_GN.cpp)

@<TRIPOS>ATOM
      1 C1          0.9308    3.7868    8.7957 C.2         1 GOX       0.1322
      2 N1          0.7616    2.5340    8.3364 N.2         1 GOX      -0.2068
      3 C2          0.0887    4.9085    8.3099 C.3         1 GOX       0.1503
      4 N5          1.9552    3.9728    9.6660 N.pl3       1 GOX      -0.2990
      5 O7         -0.1444    2.1971    7.4782 O.3         1 GOX      -0.3046
      6 O2          0.4124    5.1344    6.9337 O.3         1 GOX      -0.3713
      7 C3          0.2653    6.2176    9.1276 C.3         1 GOX       0.1233
      8 O3         -0.5804    6.1746   10.2775 O.3         1 GOX      -0.3841
      9 C4          1.7487    6.4673    9.5301 C.3         1 GOX       0.1104
     10 O4          2.4959    6.8419    8.3682 O.3         1 GOX      -0.3866
     11 C5          2.4007    5.2182   10.2052 C.3         1 GOX       0.0898
     12 C6          2.2514    5.2025   11.7554 C.3         1 GOX       0.0694
     13 O6          3.1654    6.1144   12.3668 O.3         1 GOX      -0.3927
     14 H1         -0.9609    4.6092    8.3522 H           1 GOX       0.0843
     15 H2          2.4586    3.1781    9.9191 H           1 GOX       0.1812
     16 H3          0.3537    1.7465    6.7591 H           1 GOX       0.2523
     17 H4         -0.2399    5.8001    6.6202 H           1 GOX       0.2137
     18 H5         -0.0886    7.0632    8.5398 H           1 GOX       0.0673
     19 H6         -0.4748    5.2708   10.6524 H           1 GOX       0.2103
     20 H7          1.7868    7.3267   10.2116 H           1 GOX       0.0646
     21 H8          2.6408    6.0201    7.8619 H           1 GOX       0.2100
     22 H9          3.4713    5.2414   10.0067 H           1 GOX       0.0603
     23 H10         2.4556    4.2081   12.1696 H           1 GOX       0.0581
     24 H11         1.2413    5.4869   12.0655 H           1 GOX       0.0581
     25 H12         4.0537    5.7183   12.2073 H           1 GOX       0.2095
@<TRIPOS>BOND
     1     1     2   2
     2     1     3   1
     3     1     4   1
     4     2     5   1
     5     3     6   1
     6     3     7   1
     7     4    11   1
     8     7     8   1
     9     7     9   1
    10     9    10   1
    11     9    11   1
    12    11    12   1
    13    12    13   1
    14     3    14   1
    15     4    15   1
    16     5    16   1
    17     6    17   1
    18     7    18   1
    19     8    19   1
    20     9    20   1
    21    10    21   1
    22    11    22   1
    23    12    23   1
    24    12    24   1
    25    13    25   1
@<TRIPOS>SUBSTRUCTURE
     1  GOX      1

