@<TRIPOS>MOLECULE
2j78_ligand_062
    25    25
SMALL
GAST_HUCK
****
This file was generated by PARSER (from files_GN.cpp)

@<TRIPOS>ATOM
      1 C1          0.2117    9.7830   10.2786 C.2         1 GOX       0.1322
      2 N1          1.1287   10.1063   11.2106 N.2         1 GOX      -0.2068
      3 C2         -0.1355   10.7957    9.2536 C.3         1 GOX       0.1503
      4 N5         -0.3760    8.5630   10.3212 N.pl3       1 GOX      -0.2990
      5 O7          1.4978    9.3063   12.1738 O.3         1 GOX      -0.3046
      6 O2         -0.9565   11.7942    9.8524 O.3         1 GOX      -0.3713
      7 C3         -0.8641   10.1970    8.0207 C.3         1 GOX       0.1233
      8 O3          0.1077    9.6252    7.1482 O.3         1 GOX      -0.3841
      9 C4         -1.9391    9.1510    8.4328 C.3         1 GOX       0.1104
     10 O4         -3.0437    9.8240    9.0447 O.3         1 GOX      -0.3866
     11 C5         -1.3758    8.0754    9.4211 C.3         1 GOX       0.0898
     12 C6         -0.8602    6.7775    8.7411 C.3         1 GOX       0.0694
     13 O6          0.3630    6.9815    8.0394 O.3         1 GOX      -0.3927
     14 H1          0.7743   11.2918    8.9017 H           1 GOX       0.0843
     15 H2         -0.0875    7.9576   11.0230 H           1 GOX       0.1812
     16 H3          2.2041    9.8068   12.6145 H           1 GOX       0.2523
     17 H4         -0.3574   12.3340   10.4126 H           1 GOX       0.2137
     18 H5         -1.3448   11.0070    7.4602 H           1 GOX       0.0673
     19 H6         -0.4062    9.3600    6.3668 H           1 GOX       0.2103
     20 H7         -2.3416    8.6689    7.5384 H           1 GOX       0.0646
     21 H8         -3.4785   10.3234    8.3198 H           1 GOX       0.2100
     22 H9         -2.2045    7.7639   10.0563 H           1 GOX       0.0603
     23 H10        -1.6129    6.3904    8.0496 H           1 GOX       0.0581
     24 H11        -0.6866    6.0104    9.4984 H           1 GOX       0.0581
     25 H12         0.5879    6.1059    7.6579 H           1 GOX       0.2095
@<TRIPOS>BOND
     1     1     2   2
     2     1     3   1
     3     1     4   1
     4     2     5   1
     5     3     6   1
     6     3     7   1
     7     4    11   1
     8     7     8   1
     9     7     9   1
    10     9    10   1
    11     9    11   1
    12    11    12   1
    13    12    13   1
    14     3    14   1
    15     4    15   1
    16     5    16   1
    17     6    17   1
    18     7    18   1
    19     8    19   1
    20     9    20   1
    21    10    21   1
    22    11    22   1
    23    12    23   1
    24    12    24   1
    25    13    25   1
@<TRIPOS>SUBSTRUCTURE
     1  GOX      1

