@<TRIPOS>MOLECULE
2j78_ligand_019
    25    25
SMALL
GAST_HUCK
****
This file was generated by PARSER (from files_GN.cpp)

@<TRIPOS>ATOM
      1 C1          0.0524   11.1465    7.9874 C.2         1 GOX       0.1322
      2 N1          0.3276   11.9885    6.9735 N.2         1 GOX      -0.2068
      3 C2          0.4068   11.4729    9.3962 C.3         1 GOX       0.1503
      4 N5         -0.6750   10.0492    7.6639 N.pl3       1 GOX      -0.2990
      5 O7          0.8677   13.1645    7.1375 O.3         1 GOX      -0.3046
      6 O2          1.7981   11.7638    9.5037 O.3         1 GOX      -0.3713
      7 C3          0.0734   10.3241   10.3858 C.3         1 GOX       0.1233
      8 O3          0.1211   10.8008   11.7289 O.3         1 GOX      -0.3841
      9 C4         -1.3243    9.7431   10.0710 C.3         1 GOX       0.1104
     10 O4         -1.6449    8.6982   10.9920 O.3         1 GOX      -0.3866
     11 C5         -1.3517    9.2034    8.6058 C.3         1 GOX       0.0898
     12 C6         -2.8162    8.9758    8.1066 C.3         1 GOX       0.0694
     13 O6         -3.3317   10.1003    7.3838 O.3         1 GOX      -0.3927
     14 H1         -0.1451   12.3660    9.6873 H           1 GOX       0.0843
     15 H2         -0.8213    9.8535    6.7196 H           1 GOX       0.1812
     16 H3          1.4436   13.2914    6.3589 H           1 GOX       0.2523
     17 H4          1.9438   12.5972    9.0050 H           1 GOX       0.2137
     18 H5          0.8202    9.5333   10.2887 H           1 GOX       0.0673
     19 H6          1.0718   10.9342   11.9310 H           1 GOX       0.2103
     20 H7         -2.0677   10.5389   10.1881 H           1 GOX       0.0646
     21 H8         -1.6609    9.1273   11.8735 H           1 GOX       0.2100
     22 H9         -0.8486    8.2302    8.5887 H           1 GOX       0.0603
     23 H10        -3.4759    8.7792    8.9568 H           1 GOX       0.0581
     24 H11        -2.8409    8.1031    7.4470 H           1 GOX       0.0581
     25 H12        -3.4060   10.8208    8.0436 H           1 GOX       0.2095
@<TRIPOS>BOND
     1     1     2   2
     2     1     3   1
     3     1     4   1
     4     2     5   1
     5     3     6   1
     6     3     7   1
     7     4    11   1
     8     7     8   1
     9     7     9   1
    10     9    10   1
    11     9    11   1
    12    11    12   1
    13    12    13   1
    14     3    14   1
    15     4    15   1
    16     5    16   1
    17     6    17   1
    18     7    18   1
    19     8    19   1
    20     9    20   1
    21    10    21   1
    22    11    22   1
    23    12    23   1
    24    12    24   1
    25    13    25   1
@<TRIPOS>SUBSTRUCTURE
     1  GOX      1

