@<TRIPOS>MOLECULE
2j78_ligand_003
    25    25
SMALL
GAST_HUCK
****
This file was generated by PARSER (from files_GN.cpp)

@<TRIPOS>ATOM
      1 C1         -0.7913   10.4028   10.3060 C.2         1 GOX       0.1322
      2 N1         -1.0330   10.2724   11.6257 N.2         1 GOX      -0.2068
      3 C2         -1.3824    9.4428    9.3452 C.3         1 GOX       0.1503
      4 N5         -0.0666   11.4439    9.8244 N.pl3       1 GOX      -0.2990
      5 O7         -0.5546   11.0581   12.5519 O.3         1 GOX      -0.3046
      6 O2         -0.3265    8.5928    8.8887 O.3         1 GOX      -0.3713
      7 C3         -2.0189   10.2071    8.1380 C.3         1 GOX       0.1233
      8 O3         -3.3620   10.5759    8.4521 O.3         1 GOX      -0.3841
      9 C4         -1.2085   11.4754    7.6733 C.3         1 GOX       0.1104
     10 O4         -1.0034   11.4633    6.2560 O.3         1 GOX      -0.3866
     11 C5          0.1582   11.6231    8.4178 C.3         1 GOX       0.0898
     12 C6          0.8991   12.9623    8.1271 C.3         1 GOX       0.0694
     13 O6          1.9015   12.7501    7.1405 O.3         1 GOX      -0.3927
     14 H1         -2.1274    8.8032    9.8288 H           1 GOX       0.0843
     15 H2          0.2696   12.1073   10.4456 H           1 GOX       0.1812
     16 H3          0.4193   10.9321   12.5349 H           1 GOX       0.2523
     17 H4         -0.6796    8.1292    8.1004 H           1 GOX       0.2137
     18 H5         -2.1026    9.4934    7.3122 H           1 GOX       0.0673
     19 H6         -3.8063   10.6385    7.5764 H           1 GOX       0.2103
     20 H7         -1.7985   12.3693    7.8955 H           1 GOX       0.0646
     21 H8         -0.9697   10.5195    5.9963 H           1 GOX       0.2100
     22 H9          0.8059   10.7997    8.0899 H           1 GOX       0.0603
     23 H10         1.4097   13.3239    9.0251 H           1 GOX       0.0581
     24 H11         0.2149   13.7404    7.7772 H           1 GOX       0.0581
     25 H12         2.4091   13.5857    7.1012 H           1 GOX       0.2095
@<TRIPOS>BOND
     1     1     2   2
     2     1     3   1
     3     1     4   1
     4     2     5   1
     5     3     6   1
     6     3     7   1
     7     4    11   1
     8     7     8   1
     9     7     9   1
    10     9    10   1
    11     9    11   1
    12    11    12   1
    13    12    13   1
    14     3    14   1
    15     4    15   1
    16     5    16   1
    17     6    17   1
    18     7    18   1
    19     8    19   1
    20     9    20   1
    21    10    21   1
    22    11    22   1
    23    12    23   1
    24    12    24   1
    25    13    25   1
@<TRIPOS>SUBSTRUCTURE
     1  GOX      1

