@<TRIPOS>MOLECULE
2j78_ligand_060
    25    25
SMALL
GAST_HUCK
****
This file was generated by PARSER (from files_GN.cpp)

@<TRIPOS>ATOM
      1 C1         -2.5826    7.6032   14.3600 C.2         1 GOX       0.1322
      2 N1         -3.0490    7.8906   13.1260 N.2         1 GOX      -0.2068
      3 C2         -3.5196    7.2121   15.4379 C.3         1 GOX       0.1503
      4 N5         -1.2520    7.6457   14.6289 N.pl3       1 GOX      -0.2990
      5 O7         -2.2947    8.2450   12.1223 O.3         1 GOX      -0.3046
      6 O2         -3.7069    8.3387   16.2919 O.3         1 GOX      -0.3713
      7 C3         -2.9595    6.0169   16.2726 C.3         1 GOX       0.1233
      8 O3         -3.4285    4.7864   15.7166 O.3         1 GOX      -0.3841
      9 C4         -1.3940    5.9699   16.3966 C.3         1 GOX       0.1104
     10 O4         -1.0228    5.6667   17.7418 O.3         1 GOX      -0.3866
     11 C5         -0.7160    7.2916   15.9153 C.3         1 GOX       0.0898
     12 C6          0.8321    7.2310   15.8535 C.3         1 GOX       0.0694
     13 O6          1.3008    6.5431   14.6963 O.3         1 GOX      -0.3927
     14 H1         -4.4992    6.9508   15.0287 H           1 GOX       0.0843
     15 H2         -0.6344    7.8683   13.9136 H           1 GOX       0.1812
     16 H3         -1.7724    7.4504   11.9055 H           1 GOX       0.2523
     17 H4         -2.9322    8.3270   16.9002 H           1 GOX       0.2137
     18 H5         -3.3959    6.0757   17.2720 H           1 GOX       0.0673
     19 H6         -3.4269    4.1517   16.4629 H           1 GOX       0.2103
     20 H7         -1.0145    5.1514   15.7737 H           1 GOX       0.0646
     21 H8         -1.3130    6.4390   18.2704 H           1 GOX       0.2100
     22 H9         -0.9788    8.0887   16.6167 H           1 GOX       0.0603
     23 H10         1.2202    6.7254   16.7406 H           1 GOX       0.0581
     24 H11         1.2434    8.2444   15.8384 H           1 GOX       0.0581
     25 H12         0.5925    5.8951   14.4859 H           1 GOX       0.2095
@<TRIPOS>BOND
     1     1     2   2
     2     1     3   1
     3     1     4   1
     4     2     5   1
     5     3     6   1
     6     3     7   1
     7     4    11   1
     8     7     8   1
     9     7     9   1
    10     9    10   1
    11     9    11   1
    12    11    12   1
    13    12    13   1
    14     3    14   1
    15     4    15   1
    16     5    16   1
    17     6    17   1
    18     7    18   1
    19     8    19   1
    20     9    20   1
    21    10    21   1
    22    11    22   1
    23    12    23   1
    24    12    24   1
    25    13    25   1
@<TRIPOS>SUBSTRUCTURE
     1  GOX      1

