@<TRIPOS>MOLECULE
2j78_ligand_041
    25    25
SMALL
GAST_HUCK
****
This file was generated by PARSER (from files_GN.cpp)

@<TRIPOS>ATOM
      1 C1         -2.7586    8.4704   14.9329 C.2         1 GOX       0.1322
      2 N1         -3.7466    7.9199   15.6623 N.2         1 GOX      -0.2068
      3 C2         -1.8841    9.5680   15.4338 C.3         1 GOX       0.1503
      4 N5         -2.5947    7.9198   13.7099 N.pl3       1 GOX      -0.2990
      5 O7         -4.0961    8.2543   16.8722 O.3         1 GOX      -0.3046
      6 O2         -2.6571   10.6036   16.0426 O.3         1 GOX      -0.3713
      7 C3         -1.0282   10.2242   14.3128 C.3         1 GOX       0.1233
      8 O3          0.0376   10.9527   14.9198 O.3         1 GOX      -0.3841
      9 C4         -0.4491    9.1707   13.3393 C.3         1 GOX       0.1104
     10 O4          0.2751    9.8060   12.2819 O.3         1 GOX      -0.3866
     11 C5         -1.5929    8.2739   12.7426 C.3         1 GOX       0.0898
     12 C6         -1.0433    6.9898   12.0565 C.3         1 GOX       0.0694
     13 O6         -0.6043    7.2570   10.7220 O.3         1 GOX      -0.3927
     14 H1         -1.2254    9.1318   16.1929 H           1 GOX       0.0843
     15 H2         -3.2523    7.2596   13.4326 H           1 GOX       0.1812
     16 H3         -3.3063    8.0868   17.4368 H           1 GOX       0.2523
     17 H4         -2.9772   10.2204   16.8944 H           1 GOX       0.2137
     18 H5         -1.6424   10.9330   13.7400 H           1 GOX       0.0673
     19 H6         -0.4124   11.6688   15.4258 H           1 GOX       0.2103
     20 H7          0.2508    8.5447   13.9031 H           1 GOX       0.0646
     21 H8          0.9466   10.3707   12.7177 H           1 GOX       0.2100
     22 H9         -2.1260    8.8691   11.9944 H           1 GOX       0.0603
     23 H10        -1.8172    6.2208   11.9740 H           1 GOX       0.0581
     24 H11        -0.2151    6.5535   12.6252 H           1 GOX       0.0581
     25 H12         0.0819    7.9536   10.8096 H           1 GOX       0.2095
@<TRIPOS>BOND
     1     1     2   2
     2     1     3   1
     3     1     4   1
     4     2     5   1
     5     3     6   1
     6     3     7   1
     7     4    11   1
     8     7     8   1
     9     7     9   1
    10     9    10   1
    11     9    11   1
    12    11    12   1
    13    12    13   1
    14     3    14   1
    15     4    15   1
    16     5    16   1
    17     6    17   1
    18     7    18   1
    19     8    19   1
    20     9    20   1
    21    10    21   1
    22    11    22   1
    23    12    23   1
    24    12    24   1
    25    13    25   1
@<TRIPOS>SUBSTRUCTURE
     1  GOX      1

