@<TRIPOS>MOLECULE
2j78_ligand_017
    25    25
SMALL
GAST_HUCK
****
This file was generated by PARSER (from files_GN.cpp)

@<TRIPOS>ATOM
      1 C1         -2.0994    4.6002   15.7759 C.2         1 GOX       0.1322
      2 N1         -2.9050    3.6883   15.1879 N.2         1 GOX      -0.2068
      3 C2         -0.6141    4.4464   15.7858 C.3         1 GOX       0.1503
      4 N5         -2.7117    5.6781   16.3147 N.pl3       1 GOX      -0.2990
      5 O7         -2.4906    2.6154   14.5749 O.3         1 GOX      -0.3046
      6 O2         -0.2626    3.1169   16.1642 O.3         1 GOX      -0.3713
      7 C3          0.0752    5.4358   16.7647 C.3         1 GOX       0.1233
      8 O3          1.4870    5.4273   16.5320 O.3         1 GOX      -0.3841
      9 C4         -0.5125    6.8644   16.5993 C.3         1 GOX       0.1104
     10 O4          0.1533    7.7511   17.5059 O.3         1 GOX      -0.3866
     11 C5         -2.0532    6.8410   16.8518 C.3         1 GOX       0.0898
     12 C6         -2.7504    8.1069   16.2652 C.3         1 GOX       0.0694
     13 O6         -4.0314    8.2989   16.8579 O.3         1 GOX      -0.3927
     14 H1         -0.2529    4.6193   14.7676 H           1 GOX       0.0843
     15 H2         -3.6822    5.6792   16.3119 H           1 GOX       0.1812
     16 H3         -2.6703    1.8782   15.1989 H           1 GOX       0.2523
     17 H4          0.6959    3.0310   15.9630 H           1 GOX       0.2137
     18 H5         -0.0938    5.1085   17.7974 H           1 GOX       0.0673
     19 H6          1.8960    5.5512   17.4181 H           1 GOX       0.2103
     20 H7         -0.3056    7.2016   15.5800 H           1 GOX       0.0646
     21 H8         -0.4007    8.5589   17.5357 H           1 GOX       0.2100
     22 H9         -2.2125    6.8245   17.9329 H           1 GOX       0.0603
     23 H10        -2.8619    8.0256   15.1800 H           1 GOX       0.0581
     24 H11        -2.1572    8.9973   16.4631 H           1 GOX       0.0581
     25 H12        -3.8574    8.4136   17.8145 H           1 GOX       0.2095
@<TRIPOS>BOND
     1     1     2   2
     2     1     3   1
     3     1     4   1
     4     2     5   1
     5     3     6   1
     6     3     7   1
     7     4    11   1
     8     7     8   1
     9     7     9   1
    10     9    10   1
    11     9    11   1
    12    11    12   1
    13    12    13   1
    14     3    14   1
    15     4    15   1
    16     5    16   1
    17     6    17   1
    18     7    18   1
    19     8    19   1
    20     9    20   1
    21    10    21   1
    22    11    22   1
    23    12    23   1
    24    12    24   1
    25    13    25   1
@<TRIPOS>SUBSTRUCTURE
     1  GOX      1

