@<TRIPOS>MOLECULE
2j78_ligand_013
    25    25
SMALL
GAST_HUCK
****
This file was generated by PARSER (from files_GN.cpp)

@<TRIPOS>ATOM
      1 C1          1.2055    8.9676    9.1695 C.2         1 GOX       0.1322
      2 N1          2.1022    8.0297    8.7940 N.2         1 GOX      -0.2068
      3 C2          1.3392    9.5178   10.5450 C.3         1 GOX       0.1503
      4 N5          0.1878    9.3145    8.3412 N.pl3       1 GOX      -0.2990
      5 O7          2.1041    7.4239    7.6363 O.3         1 GOX      -0.3046
      6 O2          1.0864    8.4708   11.4825 O.3         1 GOX      -0.3713
      7 C3          0.4159   10.7358   10.8350 C.3         1 GOX       0.1233
      8 O3          1.0335   11.9384   10.3724 O.3         1 GOX      -0.3841
      9 C4         -0.9814   10.5508   10.1825 C.3         1 GOX       0.1104
     10 O4         -1.6779    9.5132   10.8846 O.3         1 GOX      -0.3866
     11 C5         -0.8813   10.2145    8.6557 C.3         1 GOX       0.0898
     12 C6         -0.8049   11.4788    7.7459 C.3         1 GOX       0.0694
     13 O6         -0.4322   11.1803    6.4015 O.3         1 GOX      -0.3927
     14 H1          2.3771    9.8239   10.6948 H           1 GOX       0.0843
     15 H2          0.1538    8.8831    7.4764 H           1 GOX       0.1812
     16 H3          2.8023    6.7322    7.7269 H           1 GOX       0.2523
     17 H4          0.1415    8.2360   11.3664 H           1 GOX       0.2137
     18 H5          0.3048   10.8459   11.9142 H           1 GOX       0.0673
     19 H6          0.3980   12.6603   10.5596 H           1 GOX       0.2103
     20 H7         -1.5590   11.4657   10.3332 H           1 GOX       0.0646
     21 H8         -2.6274    9.6106   10.6303 H           1 GOX       0.2100
     22 H9         -1.8004    9.6991    8.3776 H           1 GOX       0.0603
     23 H10        -0.0730   12.1978    8.1275 H           1 GOX       0.0581
     24 H11        -1.7787   11.9684    7.7256 H           1 GOX       0.0581
     25 H12        -1.1049   10.5506    6.0688 H           1 GOX       0.2095
@<TRIPOS>BOND
     1     1     2   2
     2     1     3   1
     3     1     4   1
     4     2     5   1
     5     3     6   1
     6     3     7   1
     7     4    11   1
     8     7     8   1
     9     7     9   1
    10     9    10   1
    11     9    11   1
    12    11    12   1
    13    12    13   1
    14     3    14   1
    15     4    15   1
    16     5    16   1
    17     6    17   1
    18     7    18   1
    19     8    19   1
    20     9    20   1
    21    10    21   1
    22    11    22   1
    23    12    23   1
    24    12    24   1
    25    13    25   1
@<TRIPOS>SUBSTRUCTURE
     1  GOX      1

