@<TRIPOS>MOLECULE
2j78_ligand_028
    25    25
SMALL
GAST_HUCK
****
This file was generated by PARSER (from files_GN.cpp)

@<TRIPOS>ATOM
      1 C1         -0.2457   10.6621    8.4565 C.2         1 GOX       0.1322
      2 N1         -0.1185   11.7179    7.6243 N.2         1 GOX      -0.2068
      3 C2         -1.4308   10.5554    9.3359 C.3         1 GOX       0.1503
      4 N5          0.6930    9.6852    8.4888 N.pl3       1 GOX      -0.2990
      5 O7          0.9073   11.8744    6.8363 O.3         1 GOX      -0.3046
      6 O2         -1.0912   11.0274   10.6387 O.3         1 GOX      -0.3713
      7 C3         -1.9347    9.0811    9.4213 C.3         1 GOX       0.1233
      8 O3         -2.7769    8.8267    8.2939 O.3         1 GOX      -0.3841
      9 C4         -0.7964    7.9941    9.5003 C.3         1 GOX       0.1104
     10 O4         -0.9231    7.2036   10.6799 O.3         1 GOX      -0.3866
     11 C5          0.6443    8.5897    9.4075 C.3         1 GOX       0.0898
     12 C6          1.7387    7.5397    9.0540 C.3         1 GOX       0.0694
     13 O6          1.4278    6.7268    7.9240 O.3         1 GOX      -0.3927
     14 H1         -2.2405   11.1859    8.9544 H           1 GOX       0.0843
     15 H2          1.4515    9.7534    7.8815 H           1 GOX       0.1812
     16 H3          0.7811   12.7263    6.3697 H           1 GOX       0.2523
     17 H4         -0.9695   11.9956   10.5486 H           1 GOX       0.2137
     18 H5         -2.5824    8.9960   10.2965 H           1 GOX       0.0673
     19 H6         -2.1611    8.6064    7.5597 H           1 GOX       0.2103
     20 H7         -0.9401    7.3055    8.6639 H           1 GOX       0.0646
     21 H8         -0.8415    7.8285   11.4247 H           1 GOX       0.2100
     22 H9          0.8993    8.9994   10.3903 H           1 GOX       0.0603
     23 H10         1.8936    6.8749    9.9050 H           1 GOX       0.0581
     24 H11         2.6869    8.0487    8.8560 H           1 GOX       0.0581
     25 H12         0.7063    7.1907    7.4349 H           1 GOX       0.2095
@<TRIPOS>BOND
     1     1     2   2
     2     1     3   1
     3     1     4   1
     4     2     5   1
     5     3     6   1
     6     3     7   1
     7     4    11   1
     8     7     8   1
     9     7     9   1
    10     9    10   1
    11     9    11   1
    12    11    12   1
    13    12    13   1
    14     3    14   1
    15     4    15   1
    16     5    16   1
    17     6    17   1
    18     7    18   1
    19     8    19   1
    20     9    20   1
    21    10    21   1
    22    11    22   1
    23    12    23   1
    24    12    24   1
    25    13    25   1
@<TRIPOS>SUBSTRUCTURE
     1  GOX      1

