@<TRIPOS>MOLECULE
2j78_ligand_000
    25    25
SMALL
GAST_HUCK
****
This file was generated by PARSER (from files_GN.cpp)

@<TRIPOS>ATOM
      1 C1         -1.2427    7.3668   17.5895 C.2         1 GOX       0.1322
      2 N1         -0.5937    7.1229   18.7438 N.2         1 GOX      -0.2068
      3 C2         -2.4074    6.5119   17.2567 C.3         1 GOX       0.1503
      4 N5         -0.8267    8.3787   16.7806 N.pl3       1 GOX      -0.2990
      5 O7          0.4372    7.8020   19.1676 O.3         1 GOX      -0.3046
      6 O2         -1.9313    5.2235   16.8591 O.3         1 GOX      -0.3713
      7 C3         -3.3104    7.1322   16.1531 C.3         1 GOX       0.1233
      8 O3         -4.1608    8.1173   16.7426 O.3         1 GOX      -0.3841
      9 C4         -2.4797    7.7528   14.9964 C.3         1 GOX       0.1104
     10 O4         -1.8449    6.6963   14.2775 O.3         1 GOX      -0.3866
     11 C5         -1.4035    8.7606   15.5201 C.3         1 GOX       0.0898
     12 C6         -1.9274   10.2214   15.6202 C.3         1 GOX       0.0694
     13 O6         -0.9259   11.1084   16.1079 O.3         1 GOX      -0.3927
     14 H1         -3.0148    6.3781   18.1607 H           1 GOX       0.0843
     15 H2         -0.0696    8.8998   17.0918 H           1 GOX       0.1812
     16 H3          0.2942    7.8990   20.1341 H           1 GOX       0.2523
     17 H4         -2.5994    4.5815   17.1899 H           1 GOX       0.2137
     18 H5         -3.9665    6.3623   15.7384 H           1 GOX       0.0673
     19 H6         -3.6831    8.4663   17.5230 H           1 GOX       0.2103
     20 H7         -3.1564    8.2493   14.2932 H           1 GOX       0.0646
     21 H8         -1.5003    7.1037   13.4540 H           1 GOX       0.2100
     22 H9         -0.5837    8.7832   14.7945 H           1 GOX       0.0603
     23 H10        -2.7742   10.2796   16.3043 H           1 GOX       0.0581
     24 H11        -2.2374   10.5832   14.6416 H           1 GOX       0.0581
     25 H12        -0.4014   11.3897   15.3226 H           1 GOX       0.2095
@<TRIPOS>BOND
     1     1     2   2
     2     1     3   1
     3     1     4   1
     4     2     5   1
     5     3     6   1
     6     3     7   1
     7     4    11   1
     8     7     8   1
     9     7     9   1
    10     9    10   1
    11     9    11   1
    12    11    12   1
    13    12    13   1
    14     3    14   1
    15     4    15   1
    16     5    16   1
    17     6    17   1
    18     7    18   1
    19     8    19   1
    20     9    20   1
    21    10    21   1
    22    11    22   1
    23    12    23   1
    24    12    24   1
    25    13    25   1
@<TRIPOS>SUBSTRUCTURE
     1  GOX      1

