@<TRIPOS>MOLECULE
2j78_ligand_002
    25    25
SMALL
GAST_HUCK
****
This file was generated by PARSER (from files_GN.cpp)

@<TRIPOS>ATOM
      1 C1          0.9250    9.3713    8.8528 C.2         1 GOX       0.1322
      2 N1          1.8276    8.3945    8.6392 N.2         1 GOX      -0.2068
      3 C2          1.3433   10.6202    9.5467 C.3         1 GOX       0.1503
      4 N5         -0.3527    9.2437    8.4116 N.pl3       1 GOX      -0.2990
      5 O7          1.5702    7.2663    8.0650 O.3         1 GOX      -0.3046
      6 O2          0.8235   10.5485   10.8768 O.3         1 GOX      -0.3713
      7 C3          0.7686   11.8656    8.8096 C.3         1 GOX       0.1233
      8 O3          1.6837   12.2654    7.7821 O.3         1 GOX      -0.3841
      9 C4         -0.6545   11.6490    8.1608 C.3         1 GOX       0.1104
     10 O4         -1.5174   12.7420    8.5009 O.3         1 GOX      -0.3866
     11 C5         -1.3165   10.2951    8.5726 C.3         1 GOX       0.0898
     12 C6         -2.6742    9.9809    7.8842 C.3         1 GOX       0.0694
     13 O6         -2.9250   10.7501    6.7105 O.3         1 GOX      -0.3927
     14 H1          2.4240   10.6923    9.6118 H           1 GOX       0.0843
     15 H2         -0.5981    8.4328    7.9568 H           1 GOX       0.1812
     16 H3          2.2947    7.1688    7.3995 H           1 GOX       0.2523
     17 H4          1.5978   10.6076   11.4837 H           1 GOX       0.2137
     18 H5          0.7376   12.6956    9.5280 H           1 GOX       0.0673
     19 H6          2.0773   13.1231    8.0606 H           1 GOX       0.2103
     20 H7         -0.5691   11.6571    7.0711 H           1 GOX       0.0646
     21 H8         -1.0173   13.5341    8.1993 H           1 GOX       0.2100
     22 H9         -1.5545   10.3570    9.6421 H           1 GOX       0.0603
     23 H10        -3.4996   10.1932    8.5792 H           1 GOX       0.0581
     24 H11        -2.7190    8.9097    7.6192 H           1 GOX       0.0581
     25 H12        -2.3551   10.3760    5.9981 H           1 GOX       0.2095
@<TRIPOS>BOND
     1     1     2   2
     2     1     3   1
     3     1     4   1
     4     2     5   1
     5     3     6   1
     6     3     7   1
     7     4    11   1
     8     7     8   1
     9     7     9   1
    10     9    10   1
    11     9    11   1
    12    11    12   1
    13    12    13   1
    14     3    14   1
    15     4    15   1
    16     5    16   1
    17     6    17   1
    18     7    18   1
    19     8    19   1
    20     9    20   1
    21    10    21   1
    22    11    22   1
    23    12    23   1
    24    12    24   1
    25    13    25   1
@<TRIPOS>SUBSTRUCTURE
     1  GOX      1

