@<TRIPOS>MOLECULE
2j78_ligand_010
    25    25
SMALL
GAST_HUCK
****
This file was generated by PARSER (from files_GN.cpp)

@<TRIPOS>ATOM
      1 C1         -0.6815    8.4625    9.7150 C.2         1 GOX       0.1322
      2 N1         -0.9162    7.1376    9.6590 N.2         1 GOX      -0.2068
      3 C2         -0.2840    9.0680   11.0095 C.3         1 GOX       0.1503
      4 N5         -0.7733    9.2528    8.6138 N.pl3       1 GOX      -0.2990
      5 O7         -1.2659    6.4295    8.6214 O.3         1 GOX      -0.3046
      6 O2         -1.4260    9.6816   11.6028 O.3         1 GOX      -0.3713
      7 C3          0.8947   10.0770   10.8271 C.3         1 GOX       0.1233
      8 O3          2.1164    9.3330   10.9781 O.3         1 GOX      -0.3841
      9 C4          0.8997   10.8456    9.4563 C.3         1 GOX       0.1104
     10 O4          1.1600   12.2354    9.6774 O.3         1 GOX      -0.3866
     11 C5         -0.4093   10.6485    8.6241 C.3         1 GOX       0.0898
     12 C6         -0.2959   11.1705    7.1602 C.3         1 GOX       0.0694
     13 O6          0.3474   12.4493    7.1020 O.3         1 GOX      -0.3927
     14 H1          0.0251    8.2874   11.7107 H           1 GOX       0.0843
     15 H2         -1.0204    8.8458    7.7681 H           1 GOX       0.1812
     16 H3         -0.7652    6.7806    7.8534 H           1 GOX       0.2523
     17 H4         -1.9025   10.1383   10.8779 H           1 GOX       0.2137
     18 H5          0.8489   10.7958   11.6482 H           1 GOX       0.0673
     19 H6          2.7069    9.9013   11.5151 H           1 GOX       0.2103
     20 H7          1.7290   10.4686    8.8445 H           1 GOX       0.0646
     21 H8          0.3426   12.6081   10.0821 H           1 GOX       0.2100
     22 H9         -1.2147   11.2035    9.1115 H           1 GOX       0.0603
     23 H10        -1.2886   11.2749    6.7208 H           1 GOX       0.0581
     24 H11         0.2688   10.4532    6.5571 H           1 GOX       0.0581
     25 H12         0.7503   12.5160    6.2079 H           1 GOX       0.2095
@<TRIPOS>BOND
     1     1     2   2
     2     1     3   1
     3     1     4   1
     4     2     5   1
     5     3     6   1
     6     3     7   1
     7     4    11   1
     8     7     8   1
     9     7     9   1
    10     9    10   1
    11     9    11   1
    12    11    12   1
    13    12    13   1
    14     3    14   1
    15     4    15   1
    16     5    16   1
    17     6    17   1
    18     7    18   1
    19     8    19   1
    20     9    20   1
    21    10    21   1
    22    11    22   1
    23    12    23   1
    24    12    24   1
    25    13    25   1
@<TRIPOS>SUBSTRUCTURE
     1  GOX      1

