@<TRIPOS>MOLECULE
2j78_ligand_034
    25    25
SMALL
GAST_HUCK
****
This file was generated by PARSER (from files_GN.cpp)

@<TRIPOS>ATOM
      1 C1          0.7131    9.4613    8.2112 C.2         1 GOX       0.1322
      2 N1          0.7193    9.5546    6.8686 N.2         1 GOX      -0.2068
      3 C2          1.3040    8.2614    8.8665 C.3         1 GOX       0.1503
      4 N5          0.2066   10.4873    8.9351 N.pl3       1 GOX      -0.2990
      5 O7          0.1893   10.5412    6.1994 O.3         1 GOX      -0.3046
      6 O2          0.9373    7.0599    8.1809 O.3         1 GOX      -0.3713
      7 C3          0.9274    8.1546   10.3763 C.3         1 GOX       0.1233
      8 O3          1.7415    7.1749   11.0220 O.3         1 GOX      -0.3841
      9 C4          1.1055    9.5297   11.0714 C.3         1 GOX       0.1104
     10 O4          0.7780    9.4382   12.4580 O.3         1 GOX      -0.3866
     11 C5          0.2293   10.6121   10.3640 C.3         1 GOX       0.0898
     12 C6          0.6564   12.0622   10.7330 C.3         1 GOX       0.0694
     13 O6          2.0631   12.2753   10.6452 O.3         1 GOX      -0.3927
     14 H1          2.3889    8.3533    8.7832 H           1 GOX       0.0843
     15 H2         -0.2004   11.2131    8.4385 H           1 GOX       0.1812
     16 H3         -0.7208   10.2375    6.0156 H           1 GOX       0.2523
     17 H4          0.0779    7.2378    7.7434 H           1 GOX       0.2137
     18 H5         -0.1150    7.8347   10.4796 H           1 GOX       0.0673
     19 H6          2.6630    7.4984   10.9227 H           1 GOX       0.2103
     20 H7          2.1654    9.7893   10.9988 H           1 GOX       0.0646
     21 H8          1.1972   10.2266   12.8631 H           1 GOX       0.2100
     22 H9         -0.8089   10.4900   10.6851 H           1 GOX       0.0603
     23 H10         0.3552   12.2918   11.7582 H           1 GOX       0.0581
     24 H11         0.1630   12.7760   10.0689 H           1 GOX       0.0581
     25 H12         2.3630   11.6899    9.9203 H           1 GOX       0.2095
@<TRIPOS>BOND
     1     1     2   2
     2     1     3   1
     3     1     4   1
     4     2     5   1
     5     3     6   1
     6     3     7   1
     7     4    11   1
     8     7     8   1
     9     7     9   1
    10     9    10   1
    11     9    11   1
    12    11    12   1
    13    12    13   1
    14     3    14   1
    15     4    15   1
    16     5    16   1
    17     6    17   1
    18     7    18   1
    19     8    19   1
    20     9    20   1
    21    10    21   1
    22    11    22   1
    23    12    23   1
    24    12    24   1
    25    13    25   1
@<TRIPOS>SUBSTRUCTURE
     1  GOX      1

