@<TRIPOS>MOLECULE
2j78_ligand_008
    25    25
SMALL
GAST_HUCK
****
This file was generated by PARSER (from files_GN.cpp)

@<TRIPOS>ATOM
      1 C1         -0.8820   10.0109    8.4459 C.2         1 GOX       0.1322
      2 N1         -1.7230    8.9612    8.3607 N.2         1 GOX      -0.2068
      3 C2         -0.8855   11.1231    7.4632 C.3         1 GOX       0.1503
      4 N5         -0.0108    9.9713    9.4771 N.pl3       1 GOX      -0.2990
      5 O7         -2.6461    8.8106    7.4571 O.3         1 GOX      -0.3046
      6 O2         -0.1129   10.7368    6.3281 O.3         1 GOX      -0.3713
      7 C3         -0.3202   12.4441    8.0446 C.3         1 GOX       0.1233
      8 O3         -1.3290   13.0760    8.8212 O.3         1 GOX      -0.3841
      9 C4          0.9675   12.2298    8.8867 C.3         1 GOX       0.1104
     10 O4          2.0494   12.0061    7.9755 O.3         1 GOX      -0.3866
     11 C5          0.8726   11.0238    9.8829 C.3         1 GOX       0.0898
     12 C6          0.4934   11.4123   11.3388 C.3         1 GOX       0.0694
     13 O6         -0.9148   11.4481   11.5650 O.3         1 GOX      -0.3927
     14 H1         -1.9061   11.3082    7.1141 H           1 GOX       0.0843
     15 H2         -0.0483    9.1895   10.0527 H           1 GOX       0.1812
     16 H3         -2.7728    7.8425    7.3940 H           1 GOX       0.2523
     17 H4         -0.4639    9.8585    6.0761 H           1 GOX       0.2137
     18 H5         -0.0963   13.1263    7.2164 H           1 GOX       0.0673
     19 H6         -1.1358   14.0315    8.7442 H           1 GOX       0.2103
     20 H7          1.2007   13.1519    9.4295 H           1 GOX       0.0646
     21 H8          2.6583   12.7800    8.0885 H           1 GOX       0.2100
     22 H9          1.8679   10.5769    9.9455 H           1 GOX       0.0603
     23 H10         0.9228   12.3822   11.6117 H           1 GOX       0.0581
     24 H11         0.8930   10.6633   12.0246 H           1 GOX       0.0581
     25 H12        -1.1942   12.3439   11.2813 H           1 GOX       0.2095
@<TRIPOS>BOND
     1     1     2   2
     2     1     3   1
     3     1     4   1
     4     2     5   1
     5     3     6   1
     6     3     7   1
     7     4    11   1
     8     7     8   1
     9     7     9   1
    10     9    10   1
    11     9    11   1
    12    11    12   1
    13    12    13   1
    14     3    14   1
    15     4    15   1
    16     5    16   1
    17     6    17   1
    18     7    18   1
    19     8    19   1
    20     9    20   1
    21    10    21   1
    22    11    22   1
    23    12    23   1
    24    12    24   1
    25    13    25   1
@<TRIPOS>SUBSTRUCTURE
     1  GOX      1

