@<TRIPOS>MOLECULE
2j78_ligand_004
    25    25
SMALL
GAST_HUCK
****
This file was generated by PARSER (from files_GN.cpp)

@<TRIPOS>ATOM
      1 C1          0.8920   11.5386    9.5029 C.2         1 GOX       0.1322
      2 N1          1.6079   12.6776    9.5983 N.2         1 GOX      -0.2068
      3 C2         -0.2273   11.3695    8.5321 C.3         1 GOX       0.1503
      4 N5          1.2867   10.5388   10.3290 N.pl3       1 GOX      -0.2990
      5 O7          1.4300   13.7139    8.8343 O.3         1 GOX      -0.3046
      6 O2         -1.1546   12.4556    8.5909 O.3         1 GOX      -0.3713
      7 C3         -1.0459   10.0749    8.8046 C.3         1 GOX       0.1233
      8 O3         -1.9499    9.8052    7.7342 O.3         1 GOX      -0.3841
      9 C4         -0.0968    8.8766    9.0778 C.3         1 GOX       0.1104
     10 O4         -0.8401    7.6703    9.2415 O.3         1 GOX      -0.3866
     11 C5          0.7646    9.1991   10.3412 C.3         1 GOX       0.0898
     12 C6          1.9306    8.1890   10.5115 C.3         1 GOX       0.0694
     13 O6          2.6100    8.3619   11.7532 O.3         1 GOX      -0.3927
     14 H1          0.1878   11.3236    7.5250 H           1 GOX       0.0843
     15 H2          1.9717   10.7550   10.9832 H           1 GOX       0.1812
     16 H3          1.4093   14.4690    9.4483 H           1 GOX       0.2523
     17 H4         -0.6935   13.2188    8.1815 H           1 GOX       0.2137
     18 H5         -1.6729   10.2327    9.6919 H           1 GOX       0.0673
     19 H6         -1.4514    9.2928    7.0648 H           1 GOX       0.2103
     20 H7          0.5650    8.7501    8.2141 H           1 GOX       0.0646
     21 H8         -1.0123    7.3731    8.3211 H           1 GOX       0.2100
     22 H9          0.1291    9.1154   11.2256 H           1 GOX       0.0603
     23 H10         2.6537    8.2995    9.7023 H           1 GOX       0.0581
     24 H11         1.5481    7.1702   10.4892 H           1 GOX       0.0581
     25 H12         2.8337    9.3161   11.8337 H           1 GOX       0.2095
@<TRIPOS>BOND
     1     1     2   2
     2     1     3   1
     3     1     4   1
     4     2     5   1
     5     3     6   1
     6     3     7   1
     7     4    11   1
     8     7     8   1
     9     7     9   1
    10     9    10   1
    11     9    11   1
    12    11    12   1
    13    12    13   1
    14     3    14   1
    15     4    15   1
    16     5    16   1
    17     6    17   1
    18     7    18   1
    19     8    19   1
    20     9    20   1
    21    10    21   1
    22    11    22   1
    23    12    23   1
    24    12    24   1
    25    13    25   1
@<TRIPOS>SUBSTRUCTURE
     1  GOX      1

