@<TRIPOS>MOLECULE
2j78_ligand_051
    25    25
SMALL
GAST_HUCK
****
This file was generated by PARSER (from files_GN.cpp)

@<TRIPOS>ATOM
      1 C1          1.1228    9.5331    9.1001 C.2         1 GOX       0.1322
      2 N1          1.5522    8.5080    8.3388 N.2         1 GOX      -0.2068
      3 C2          0.7575   10.8013    8.4293 C.3         1 GOX       0.1503
      4 N5          1.0533    9.3827   10.4446 N.pl3       1 GOX      -0.2990
      5 O7          1.9141    7.3438    8.8159 O.3         1 GOX      -0.3046
      6 O2          1.9528   11.4832    8.0532 O.3         1 GOX      -0.3713
      7 C3         -0.1565   11.7087    9.3024 C.3         1 GOX       0.1233
      8 O3         -1.5088   11.2650    9.2318 O.3         1 GOX      -0.3841
      9 C4          0.3110   11.7695   10.7871 C.3         1 GOX       0.1104
     10 O4          1.4811   12.5903   10.8665 O.3         1 GOX      -0.3866
     11 C5          0.5720   10.3465   11.3908 C.3         1 GOX       0.0898
     12 C6         -0.6543    9.7370   12.1124 C.3         1 GOX       0.0694
     13 O6         -1.0189   10.4926   13.2684 O.3         1 GOX      -0.3927
     14 H1          0.2234   10.5779    7.5026 H           1 GOX       0.0843
     15 H2          1.3177    8.5212   10.8030 H           1 GOX       0.1812
     16 H3          1.5983    6.6940    8.1343 H           1 GOX       0.2523
     17 H4          2.3862   11.7497    8.8971 H           1 GOX       0.2137
     18 H5         -0.1532   12.7239    8.8896 H           1 GOX       0.0673
     19 H6         -1.4632   10.2927    9.1147 H           1 GOX       0.2103
     20 H7         -0.4489   12.2829   11.3793 H           1 GOX       0.0646
     21 H8          1.1652   13.5047   10.6985 H           1 GOX       0.2100
     22 H9          1.3505   10.4372   12.1495 H           1 GOX       0.0603
     23 H10        -0.4270    8.7164   12.4305 H           1 GOX       0.0581
     24 H11        -1.5201    9.7024   11.4492 H           1 GOX       0.0581
     25 H12        -0.8947    9.8679   14.0337 H           1 GOX       0.2095
@<TRIPOS>BOND
     1     1     2   2
     2     1     3   1
     3     1     4   1
     4     2     5   1
     5     3     6   1
     6     3     7   1
     7     4    11   1
     8     7     8   1
     9     7     9   1
    10     9    10   1
    11     9    11   1
    12    11    12   1
    13    12    13   1
    14     3    14   1
    15     4    15   1
    16     5    16   1
    17     6    17   1
    18     7    18   1
    19     8    19   1
    20     9    20   1
    21    10    21   1
    22    11    22   1
    23    12    23   1
    24    12    24   1
    25    13    25   1
@<TRIPOS>SUBSTRUCTURE
     1  GOX      1

