@<TRIPOS>MOLECULE
2j78_ligand_045
    25    25
SMALL
GAST_HUCK
****
This file was generated by PARSER (from files_GN.cpp)

@<TRIPOS>ATOM
      1 C1          0.7271    7.8949    9.8603 C.2         1 GOX       0.1322
      2 N1          1.2441    6.9933    9.0013 N.2         1 GOX      -0.2068
      3 C2         -0.0964    9.0099    9.3346 C.3         1 GOX       0.1503
      4 N5          0.9549    7.7395   11.1888 N.pl3       1 GOX      -0.2990
      5 O7          1.9874    5.9797    9.3550 O.3         1 GOX      -0.3046
      6 O2          0.4284    9.4894    8.0979 O.3         1 GOX      -0.3713
      7 C3         -0.1783   10.1996   10.3356 C.3         1 GOX       0.1233
      8 O3         -1.1545   11.1464    9.8907 O.3         1 GOX      -0.3841
      9 C4         -0.5475    9.6762   11.7485 C.3         1 GOX       0.1104
     10 O4         -0.6395   10.7508   12.6836 O.3         1 GOX      -0.3866
     11 C5          0.5034    8.6225   12.2247 C.3         1 GOX       0.0898
     12 C6         -0.0021    7.7830   13.4326 C.3         1 GOX       0.0694
     13 O6         -1.2797    7.1793   13.1922 O.3         1 GOX      -0.3927
     14 H1         -1.1029    8.6286    9.1456 H           1 GOX       0.0843
     15 H2          1.5334    7.0050   11.4656 H           1 GOX       0.1812
     16 H3          2.6422    5.8933    8.6248 H           1 GOX       0.2523
     17 H4          0.0467    8.9205    7.3931 H           1 GOX       0.2137
     18 H5          0.8015   10.7041   10.3777 H           1 GOX       0.0673
     19 H6         -0.8538   12.0223   10.2245 H           1 GOX       0.2103
     20 H7         -1.5382    9.2092   11.6926 H           1 GOX       0.0646
     21 H8          0.2839   11.0054   12.8931 H           1 GOX       0.2100
     22 H9          1.3950    9.1598   12.5596 H           1 GOX       0.0603
     23 H10        -0.0876    8.4325   14.3184 H           1 GOX       0.0581
     24 H11         0.7273    6.9958   13.6657 H           1 GOX       0.0581
     25 H12        -1.1311    6.5846   12.4231 H           1 GOX       0.2095
@<TRIPOS>BOND
     1     1     2   2
     2     1     3   1
     3     1     4   1
     4     2     5   1
     5     3     6   1
     6     3     7   1
     7     4    11   1
     8     7     8   1
     9     7     9   1
    10     9    10   1
    11     9    11   1
    12    11    12   1
    13    12    13   1
    14     3    14   1
    15     4    15   1
    16     5    16   1
    17     6    17   1
    18     7    18   1
    19     8    19   1
    20     9    20   1
    21    10    21   1
    22    11    22   1
    23    12    23   1
    24    12    24   1
    25    13    25   1
@<TRIPOS>SUBSTRUCTURE
     1  GOX      1

