@<TRIPOS>MOLECULE
2j78_ligand_023
    25    25
SMALL
GAST_HUCK
****
This file was generated by PARSER (from files_GN.cpp)

@<TRIPOS>ATOM
      1 C1         -1.0253   11.0723    7.9873 C.2         1 GOX       0.1322
      2 N1         -0.4531   11.5850    6.8740 N.2         1 GOX      -0.2068
      3 C2         -2.4295   10.6020    7.9591 C.3         1 GOX       0.1503
      4 N5         -0.3164   11.0076    9.1369 N.pl3       1 GOX      -0.2990
      5 O7          0.7929   11.9654    6.8408 O.3         1 GOX      -0.3046
      6 O2         -3.2318   11.6807    8.4310 O.3         1 GOX      -0.3713
      7 C3         -2.6425    9.3363    8.8645 C.3         1 GOX       0.1233
      8 O3         -2.6141    8.1516    8.0625 O.3         1 GOX      -0.3841
      9 C4         -1.6232    9.1781   10.0509 C.3         1 GOX       0.1104
     10 O4         -2.2794    8.6790   11.2192 O.3         1 GOX      -0.3866
     11 C5         -0.8802   10.5166   10.3612 C.3         1 GOX       0.0898
     12 C6          0.2203   10.4112   11.4537 C.3         1 GOX       0.0694
     13 O6         -0.3515   10.1969   12.7430 O.3         1 GOX      -0.3927
     14 H1         -2.7453   10.3934    6.9331 H           1 GOX       0.0843
     15 H2          0.6117   11.2898    9.1327 H           1 GOX       0.1812
     16 H3          0.8094   12.7531    6.2439 H           1 GOX       0.2523
     17 H4         -4.1535   11.3519    8.3905 H           1 GOX       0.2137
     18 H5         -3.6539    9.3795    9.2810 H           1 GOX       0.0673
     19 H6         -1.7404    8.1556    7.6204 H           1 GOX       0.2103
     20 H7         -0.8647    8.4387    9.7711 H           1 GOX       0.0646
     21 H8         -3.0910    9.2238   11.3019 H           1 GOX       0.2100
     22 H9         -1.6086   11.2507   10.7136 H           1 GOX       0.0603
     23 H10         0.7870   11.3430   11.4900 H           1 GOX       0.0581
     24 H11         0.9090    9.5880   11.2259 H           1 GOX       0.0581
     25 H12         0.2654   10.6298   13.3606 H           1 GOX       0.2095
@<TRIPOS>BOND
     1     1     2   2
     2     1     3   1
     3     1     4   1
     4     2     5   1
     5     3     6   1
     6     3     7   1
     7     4    11   1
     8     7     8   1
     9     7     9   1
    10     9    10   1
    11     9    11   1
    12    11    12   1
    13    12    13   1
    14     3    14   1
    15     4    15   1
    16     5    16   1
    17     6    17   1
    18     7    18   1
    19     8    19   1
    20     9    20   1
    21    10    21   1
    22    11    22   1
    23    12    23   1
    24    12    24   1
    25    13    25   1
@<TRIPOS>SUBSTRUCTURE
     1  GOX      1

