@<TRIPOS>MOLECULE
2j78_ligand_016
    25    25
SMALL
GAST_HUCK
****
This file was generated by PARSER (from files_GN.cpp)

@<TRIPOS>ATOM
      1 C1         -2.8300    7.9053   16.2359 C.2         1 GOX       0.1322
      2 N1         -3.9830    7.8210   16.9330 N.2         1 GOX      -0.2068
      3 C2         -2.7025    8.9319   15.1753 C.3         1 GOX       0.1503
      4 N5         -1.8237    7.0220   16.4471 N.pl3       1 GOX      -0.2990
      5 O7         -4.2038    6.9149   17.8425 O.3         1 GOX      -0.3046
      6 O2         -3.2573    8.3616   13.9880 O.3         1 GOX      -0.3713
      7 C3         -1.2337    9.4165   14.9153 C.3         1 GOX       0.1233
      8 O3         -1.0655   10.7499   15.4091 O.3         1 GOX      -0.3841
      9 C4         -0.1212    8.5007   15.5256 C.3         1 GOX       0.1104
     10 O4          1.0571    8.5610   14.7179 O.3         1 GOX      -0.3866
     11 C5         -0.6088    7.0296   15.6857 C.3         1 GOX       0.0898
     12 C6          0.4286    6.0803   16.3401 C.3         1 GOX       0.0694
     13 O6          1.1045    6.7006   17.4313 O.3         1 GOX      -0.3927
     14 H1         -3.3260    9.7906   15.4355 H           1 GOX       0.0843
     15 H2         -1.9243    6.3703   17.1594 H           1 GOX       0.1812
     16 H3         -4.6745    6.2037   17.3588 H           1 GOX       0.2523
     17 H4         -2.6070    7.6958   13.6789 H           1 GOX       0.2137
     18 H5         -1.0843    9.4750   13.8327 H           1 GOX       0.0673
     19 H6         -0.3387   11.1466   14.8797 H           1 GOX       0.2103
     20 H7          0.1326    8.8757   16.5209 H           1 GOX       0.0646
     21 H8          1.0926    9.4792   14.3698 H           1 GOX       0.2100
     22 H9         -0.8322    6.6337   14.6899 H           1 GOX       0.0603
     23 H10         1.1708    5.7679   15.6025 H           1 GOX       0.0581
     24 H11        -0.0793    5.1859   16.7095 H           1 GOX       0.0581
     25 H12         1.5701    5.9735   17.8972 H           1 GOX       0.2095
@<TRIPOS>BOND
     1     1     2   2
     2     1     3   1
     3     1     4   1
     4     2     5   1
     5     3     6   1
     6     3     7   1
     7     4    11   1
     8     7     8   1
     9     7     9   1
    10     9    10   1
    11     9    11   1
    12    11    12   1
    13    12    13   1
    14     3    14   1
    15     4    15   1
    16     5    16   1
    17     6    17   1
    18     7    18   1
    19     8    19   1
    20     9    20   1
    21    10    21   1
    22    11    22   1
    23    12    23   1
    24    12    24   1
    25    13    25   1
@<TRIPOS>SUBSTRUCTURE
     1  GOX      1

