@<TRIPOS>MOLECULE
2j78_ligand_029
    25    25
SMALL
GAST_HUCK
****
This file was generated by PARSER (from files_GN.cpp)

@<TRIPOS>ATOM
      1 C1          1.6558   11.9720    9.2344 C.2         1 GOX       0.1322
      2 N1          2.9969   12.1368    9.3318 N.2         1 GOX      -0.2068
      3 C2          0.8572   12.3215    8.0326 C.3         1 GOX       0.1503
      4 N5          1.0423   11.3762   10.2966 N.pl3       1 GOX      -0.2990
      5 O7          3.8308   12.5638    8.4187 O.3         1 GOX      -0.3046
      6 O2          0.1685   13.5423    8.2696 O.3         1 GOX      -0.3713
      7 C3         -0.1501   11.1789    7.6675 C.3         1 GOX       0.1233
      8 O3          0.4971   10.2985    6.7488 O.3         1 GOX      -0.3841
      9 C4         -0.6878   10.3582    8.8873 C.3         1 GOX       0.1104
     10 O4         -2.1068   10.1807    8.7798 O.3         1 GOX      -0.3866
     11 C5         -0.3461   11.0046   10.2731 C.3         1 GOX       0.0898
     12 C6         -0.6897   10.0803   11.4674 C.3         1 GOX       0.0694
     13 O6         -0.7396   10.7941   12.7019 O.3         1 GOX      -0.3927
     14 H1          1.4929   12.5255    7.1689 H           1 GOX       0.0843
     15 H2          1.5840   11.1168   11.0646 H           1 GOX       0.1812
     16 H3          3.5843   12.1111    7.5835 H           1 GOX       0.2523
     17 H4         -0.1135   13.5225    9.2057 H           1 GOX       0.2137
     18 H5         -0.9802   11.6316    7.1172 H           1 GOX       0.0673
     19 H6         -0.2036    9.7054    6.3997 H           1 GOX       0.2103
     20 H7         -0.2386    9.3587    8.8775 H           1 GOX       0.0646
     21 H8         -2.2382    9.5593    8.0315 H           1 GOX       0.2100
     22 H9         -0.9414   11.9099   10.3763 H           1 GOX       0.0603
     23 H10         0.0434    9.2772   11.5481 H           1 GOX       0.0581
     24 H11        -1.6739    9.6361   11.3192 H           1 GOX       0.0581
     25 H12         0.1842   11.0203   12.9317 H           1 GOX       0.2095
@<TRIPOS>BOND
     1     1     2   2
     2     1     3   1
     3     1     4   1
     4     2     5   1
     5     3     6   1
     6     3     7   1
     7     4    11   1
     8     7     8   1
     9     7     9   1
    10     9    10   1
    11     9    11   1
    12    11    12   1
    13    12    13   1
    14     3    14   1
    15     4    15   1
    16     5    16   1
    17     6    17   1
    18     7    18   1
    19     8    19   1
    20     9    20   1
    21    10    21   1
    22    11    22   1
    23    12    23   1
    24    12    24   1
    25    13    25   1
@<TRIPOS>SUBSTRUCTURE
     1  GOX      1

