@<TRIPOS>MOLECULE
2j78_ligand_049
    25    25
SMALL
GAST_HUCK
****
This file was generated by PARSER (from files_GN.cpp)

@<TRIPOS>ATOM
      1 C1         -1.4044    9.9437   15.0609 C.2         1 GOX       0.1322
      2 N1         -0.9963   11.1192   15.5882 N.2         1 GOX      -0.2068
      3 C2         -0.7004    9.3302   13.9034 C.3         1 GOX       0.1503
      4 N5         -2.4215    9.3115   15.7019 N.pl3       1 GOX      -0.2990
      5 O7         -0.0248   11.8372   15.0927 O.3         1 GOX      -0.3046
      6 O2         -0.4956   10.2555   12.8352 O.3         1 GOX      -0.3713
      7 C3         -1.4550    8.1143   13.3056 C.3         1 GOX       0.1233
      8 O3         -0.5755    7.4090   12.4304 O.3         1 GOX      -0.3841
      9 C4         -1.9893    7.1969   14.4343 C.3         1 GOX       0.1104
     10 O4         -2.6918    6.0831   13.8822 O.3         1 GOX      -0.3866
     11 C5         -2.9315    8.0081   15.3759 C.3         1 GOX       0.0898
     12 C6         -3.2562    7.2376   16.6845 C.3         1 GOX       0.0694
     13 O6         -4.3778    7.8264   17.3365 O.3         1 GOX      -0.3927
     14 H1          0.2811    8.9982   14.2486 H           1 GOX       0.0843
     15 H2         -2.8308    9.7799   16.4470 H           1 GOX       0.1812
     16 H3          0.1536   12.5267   15.7630 H           1 GOX       0.2523
     17 H4          0.3060   10.7704   13.0719 H           1 GOX       0.2137
     18 H5         -2.3018    8.4710   12.7123 H           1 GOX       0.0673
     19 H6         -1.1494    6.8395   11.8740 H           1 GOX       0.2103
     20 H7         -1.1430    6.8130   15.0124 H           1 GOX       0.0646
     21 H8         -2.0129    5.5475   13.4218 H           1 GOX       0.2100
     22 H9         -3.8761    8.1717   14.8505 H           1 GOX       0.0603
     23 H10        -2.3965    7.2467   17.3576 H           1 GOX       0.0581
     24 H11        -3.4936    6.1982   16.4547 H           1 GOX       0.0581
     25 H12        -4.5840    7.2301   18.0866 H           1 GOX       0.2095
@<TRIPOS>BOND
     1     1     2   2
     2     1     3   1
     3     1     4   1
     4     2     5   1
     5     3     6   1
     6     3     7   1
     7     4    11   1
     8     7     8   1
     9     7     9   1
    10     9    10   1
    11     9    11   1
    12    11    12   1
    13    12    13   1
    14     3    14   1
    15     4    15   1
    16     5    16   1
    17     6    17   1
    18     7    18   1
    19     8    19   1
    20     9    20   1
    21    10    21   1
    22    11    22   1
    23    12    23   1
    24    12    24   1
    25    13    25   1
@<TRIPOS>SUBSTRUCTURE
     1  GOX      1

