@<TRIPOS>MOLECULE
2j78_ligand_012
    25    25
SMALL
GAST_HUCK
****
This file was generated by PARSER (from files_GN.cpp)

@<TRIPOS>ATOM
      1 C1         -0.1296    8.7297   14.6399 C.2         1 GOX       0.1322
      2 N1          0.8894    8.6193   13.7653 N.2         1 GOX      -0.2068
      3 C2         -1.3710    9.5025   14.3810 C.3         1 GOX       0.1503
      4 N5         -0.0189    8.0595   15.8074 N.pl3       1 GOX      -0.2990
      5 O7          0.9280    9.1889   12.5948 O.3         1 GOX      -0.3046
      6 O2         -1.2824   10.7296   15.1072 O.3         1 GOX      -0.3713
      7 C3         -2.6244    8.6815   14.8199 C.3         1 GOX       0.1233
      8 O3         -3.0053    7.8202   13.7424 O.3         1 GOX      -0.3841
      9 C4         -2.4419    7.8385   16.1337 C.3         1 GOX       0.1104
     10 O4         -3.5120    8.1533   17.0306 O.3         1 GOX      -0.3866
     11 C5         -1.0480    8.0522   16.8106 C.3         1 GOX       0.0898
     12 C6         -0.6851    6.9869   17.8790 C.3         1 GOX       0.0694
     13 O6          0.5297    7.3669   18.5200 O.3         1 GOX      -0.3927
     14 H1         -1.4631    9.7655   13.3255 H           1 GOX       0.0843
     15 H2          0.7796    7.5238   15.9521 H           1 GOX       0.1812
     16 H3          1.3116   10.0740   12.7740 H           1 GOX       0.2523
     17 H4         -0.4899   11.1908   14.7525 H           1 GOX       0.2137
     18 H5         -3.4466    9.3885   14.9562 H           1 GOX       0.0673
     19 H6         -3.8115    7.3573   14.0522 H           1 GOX       0.2103
     20 H7         -2.5292    6.7751   15.8901 H           1 GOX       0.0646
     21 H8         -3.3618    7.6008   17.8257 H           1 GOX       0.2100
     22 H9         -1.0544    9.0338   17.2924 H           1 GOX       0.0603
     23 H10        -0.5509    6.0107   17.4018 H           1 GOX       0.0581
     24 H11        -1.4635    6.9059   18.6361 H           1 GOX       0.0581
     25 H12         0.8550    6.5788   19.0026 H           1 GOX       0.2095
@<TRIPOS>BOND
     1     1     2   2
     2     1     3   1
     3     1     4   1
     4     2     5   1
     5     3     6   1
     6     3     7   1
     7     4    11   1
     8     7     8   1
     9     7     9   1
    10     9    10   1
    11     9    11   1
    12    11    12   1
    13    12    13   1
    14     3    14   1
    15     4    15   1
    16     5    16   1
    17     6    17   1
    18     7    18   1
    19     8    19   1
    20     9    20   1
    21    10    21   1
    22    11    22   1
    23    12    23   1
    24    12    24   1
    25    13    25   1
@<TRIPOS>SUBSTRUCTURE
     1  GOX      1

