@<TRIPOS>MOLECULE
2j78_ligand_005
    25    25
SMALL
GAST_HUCK
****
This file was generated by PARSER (from files_GN.cpp)

@<TRIPOS>ATOM
      1 C1         -0.0031   10.3164    8.7172 C.2         1 GOX       0.1322
      2 N1         -0.0935   11.1994    7.6990 N.2         1 GOX      -0.2068
      3 C2         -0.0083   10.8401   10.1139 C.3         1 GOX       0.1503
      4 N5          0.0421    8.9855    8.4463 N.pl3       1 GOX      -0.2990
      5 O7         -0.1239   10.9329    6.4156 O.3         1 GOX      -0.3046
      6 O2          0.8600   11.9688   10.2595 O.3         1 GOX      -0.3713
      7 C3          0.3970    9.7715   11.1647 C.3         1 GOX       0.1233
      8 O3          0.0297   10.1717   12.4841 O.3         1 GOX      -0.3841
      9 C4         -0.2689    8.4133   10.8546 C.3         1 GOX       0.1104
     10 O4          0.1242    7.4509   11.8342 O.3         1 GOX      -0.3866
     11 C5          0.1361    7.9387    9.4270 C.3         1 GOX       0.0898
     12 C6         -0.7038    6.7024    9.0024 C.3         1 GOX       0.0694
     13 O6         -0.0035    5.8591    8.0886 O.3         1 GOX      -0.3927
     14 H1         -1.0246   11.1712   10.3313 H           1 GOX       0.0843
     15 H2          0.0209    8.7149    7.5151 H           1 GOX       0.1812
     16 H3         -0.7739   10.2178    6.2711 H           1 GOX       0.2523
     17 H4          0.2687   12.7514   10.3315 H           1 GOX       0.2137
     18 H5          1.4827    9.6402   11.1415 H           1 GOX       0.0673
     19 H6          0.7846   10.7017   12.8106 H           1 GOX       0.2103
     20 H7         -1.3547    8.5297   10.9089 H           1 GOX       0.0646
     21 H8          1.1076    7.4715   11.8249 H           1 GOX       0.2100
     22 H9          1.1863    7.6346    9.4572 H           1 GOX       0.0603
     23 H10        -1.6436    7.0251    8.5502 H           1 GOX       0.0581
     24 H11        -0.9436    6.0814    9.8683 H           1 GOX       0.0581
     25 H12        -0.1206    6.2677    7.2088 H           1 GOX       0.2095
@<TRIPOS>BOND
     1     1     2   2
     2     1     3   1
     3     1     4   1
     4     2     5   1
     5     3     6   1
     6     3     7   1
     7     4    11   1
     8     7     8   1
     9     7     9   1
    10     9    10   1
    11     9    11   1
    12    11    12   1
    13    12    13   1
    14     3    14   1
    15     4    15   1
    16     5    16   1
    17     6    17   1
    18     7    18   1
    19     8    19   1
    20     9    20   1
    21    10    21   1
    22    11    22   1
    23    12    23   1
    24    12    24   1
    25    13    25   1
@<TRIPOS>SUBSTRUCTURE
     1  GOX      1

