@<TRIPOS>MOLECULE
2j78_ligand_022
    25    25
SMALL
GAST_HUCK
****
This file was generated by PARSER (from files_GN.cpp)

@<TRIPOS>ATOM
      1 C1         -0.6127    8.4190   15.3920 C.2         1 GOX       0.1322
      2 N1         -0.2189    9.6869   15.1473 N.2         1 GOX      -0.2068
      3 C2          0.4049    7.3405   15.4418 C.3         1 GOX       0.1503
      4 N5         -1.9114    8.1145   15.6410 N.pl3       1 GOX      -0.2990
      5 O7         -1.0300   10.7065   15.0938 O.3         1 GOX      -0.3046
      6 O2          0.3181    6.5978   14.2274 O.3         1 GOX      -0.3713
      7 C3          0.1628    6.3871   16.6545 C.3         1 GOX       0.1233
      8 O3          0.9154    6.8605   17.7751 O.3         1 GOX      -0.3841
      9 C4         -1.3423    6.2044   17.0754 C.3         1 GOX       0.1104
     10 O4         -1.5763    4.8095   17.2912 O.3         1 GOX      -0.3866
     11 C5         -2.3328    6.7950   16.0190 C.3         1 GOX       0.0898
     12 C6         -3.8208    6.8179   16.4696 C.3         1 GOX       0.0694
     13 O6         -4.2507    8.0563   17.0300 O.3         1 GOX      -0.3927
     14 H1          1.4132    7.7611   15.4950 H           1 GOX       0.0843
     15 H2         -2.5655    8.8302   15.6223 H           1 GOX       0.1812
     16 H3         -0.4450   11.4491   14.8393 H           1 GOX       0.2523
     17 H4          0.6941    7.1900   13.5383 H           1 GOX       0.2137
     18 H5          0.5986    5.4169   16.3907 H           1 GOX       0.0673
     19 H6          1.3673    6.0686   18.1447 H           1 GOX       0.2103
     20 H7         -1.5192    6.7202   18.0252 H           1 GOX       0.0646
     21 H8         -2.5026    4.7136   17.6046 H           1 GOX       0.2100
     22 H9         -2.2772    6.1571   15.1317 H           1 GOX       0.0603
     23 H10        -4.0117    6.0347   17.2053 H           1 GOX       0.0581
     24 H11        -4.4572    6.6314   15.6025 H           1 GOX       0.0581
     25 H12        -3.5888    8.3093   17.7070 H           1 GOX       0.2095
@<TRIPOS>BOND
     1     1     2   2
     2     1     3   1
     3     1     4   1
     4     2     5   1
     5     3     6   1
     6     3     7   1
     7     4    11   1
     8     7     8   1
     9     7     9   1
    10     9    10   1
    11     9    11   1
    12    11    12   1
    13    12    13   1
    14     3    14   1
    15     4    15   1
    16     5    16   1
    17     6    17   1
    18     7    18   1
    19     8    19   1
    20     9    20   1
    21    10    21   1
    22    11    22   1
    23    12    23   1
    24    12    24   1
    25    13    25   1
@<TRIPOS>SUBSTRUCTURE
     1  GOX      1

