@<TRIPOS>MOLECULE
2j78_ligand_063
    25    25
SMALL
GAST_HUCK
****
This file was generated by PARSER (from files_GN.cpp)

@<TRIPOS>ATOM
      1 C1          1.4111   10.6544   10.3052 C.2         1 GOX       0.1322
      2 N1          2.1833   11.4869    9.5774 N.2         1 GOX      -0.2068
      3 C2         -0.0475   10.8819   10.4404 C.3         1 GOX       0.1503
      4 N5          2.0457    9.6424   10.9423 N.pl3       1 GOX      -0.2990
      5 O7          1.7479   12.5093    8.9010 O.3         1 GOX      -0.3046
      6 O2         -0.2210   12.0181   11.2881 O.3         1 GOX      -0.3713
      7 C3         -0.8069    9.6405   10.9886 C.3         1 GOX       0.1233
      8 O3         -1.0143    8.7081    9.9250 O.3         1 GOX      -0.3841
      9 C4         -0.0401    8.9543   12.1535 C.3         1 GOX       0.1104
     10 O4         -0.0827    9.7950   13.3098 O.3         1 GOX      -0.3866
     11 C5          1.4444    8.6404   11.7722 C.3         1 GOX       0.0898
     12 C6          1.6308    7.2564   11.0928 C.3         1 GOX       0.0694
     13 O6          2.9803    6.7928   11.1857 O.3         1 GOX      -0.3927
     14 H1         -0.4753   11.1356    9.4681 H           1 GOX       0.0843
     15 H2          3.0025    9.5821   10.8148 H           1 GOX       0.1812
     16 H3          2.5513   13.0255    8.6584 H           1 GOX       0.2523
     17 H4         -1.1656   12.0277   11.5482 H           1 GOX       0.2137
     18 H5         -1.7992    9.9407   11.3437 H           1 GOX       0.0673
     19 H6         -1.5165    7.9629   10.3200 H           1 GOX       0.2103
     20 H7         -0.5617    8.0330   12.4330 H           1 GOX       0.0646
     21 H8          0.6605   10.4329   13.2217 H           1 GOX       0.2100
     22 H9          2.0277    8.6071   12.6975 H           1 GOX       0.0603
     23 H10         1.3543    7.3014   10.0306 H           1 GOX       0.0581
     24 H11         0.9959    6.5073   11.5781 H           1 GOX       0.0581
     25 H12         3.5012    7.3953   10.6128 H           1 GOX       0.2095
@<TRIPOS>BOND
     1     1     2   2
     2     1     3   1
     3     1     4   1
     4     2     5   1
     5     3     6   1
     6     3     7   1
     7     4    11   1
     8     7     8   1
     9     7     9   1
    10     9    10   1
    11     9    11   1
    12    11    12   1
    13    12    13   1
    14     3    14   1
    15     4    15   1
    16     5    16   1
    17     6    17   1
    18     7    18   1
    19     8    19   1
    20     9    20   1
    21    10    21   1
    22    11    22   1
    23    12    23   1
    24    12    24   1
    25    13    25   1
@<TRIPOS>SUBSTRUCTURE
     1  GOX      1

