@<TRIPOS>MOLECULE
2jdm_ligand_001
    26    26
SMALL
GAST_HUCK
****
This file was generated by PARSER (from files_GN.cpp)

@<TRIPOS>ATOM
      1 C1         10.4820    6.1923   -5.6632 C.3         1 MFU       0.1875
      2 C2         10.1882    6.6251   -4.2035 C.3         1 MFU       0.1341
      3 C3         10.7132    5.5746   -3.1851 C.3         1 MFU       0.1140
      4 C4         10.2370    4.1416   -3.5510 C.3         1 MFU       0.1095
      5 C5         10.4636    3.7992   -5.0572 C.3         1 MFU       0.0873
      6 C6         11.9099    3.3869   -5.4382 C.3         1 MFU      -0.0361
      7 O1          9.8478    7.1443   -6.5446 O.3         1 MFU      -0.3520
      8 O2          8.7791    6.8066   -4.0553 O.3         1 MFU      -0.3841
      9 O3         12.1374    5.6292   -3.1041 O.3         1 MFU      -0.3864
     10 O4         10.8378    3.1783   -2.6859 O.3         1 MFU      -0.3866
     11 O5          9.9679    4.8597   -5.9072 O.3         1 MFU      -0.3431
     12 CM         10.1213    6.9657   -7.9457 C.3         1 MFU       0.0395
     13 H1         11.5632    6.2227   -5.8325 H           1 MFU       0.0937
     14 H2         10.6682    7.5876   -4.0100 H           1 MFU       0.0671
     15 H3         10.3316    5.8285   -2.1912 H           1 MFU       0.0648
     16 H4          9.1610    4.0914   -3.3693 H           1 MFU       0.0646
     17 H5          9.8385    2.9297   -5.2848 H           1 MFU       0.0621
     18 H6         11.9611    3.1788   -6.5076 H           1 MFU       0.0255
     19 H7         12.1951    2.4859   -4.8931 H           1 MFU       0.0255
     20 H8         12.6339    4.1667   -5.2022 H           1 MFU       0.0255
     21 H9          8.6481    7.1402   -3.1436 H           1 MFU       0.2101
     22 H10        12.3072    6.2947   -2.4074 H           1 MFU       0.2100
     23 H11        10.4781    3.3679   -1.7902 H           1 MFU       0.2100
     24 H12         9.6107    7.7545   -8.5018 H           1 MFU       0.0525
     25 H13         9.7517    6.0014   -8.2982 H           1 MFU       0.0525
     26 H14        11.1911    7.0424   -8.1463 H           1 MFU       0.0525
@<TRIPOS>BOND
     1     1     2   1
     2     1     7   1
     3     1    11   1
     4     2     3   1
     5     2     8   1
     6     3     4   1
     7     3     9   1
     8     4     5   1
     9     4    10   1
    10     5     6   1
    11     5    11   1
    12     7    12   1
    13     1    13   1
    14     2    14   1
    15     3    15   1
    16     4    16   1
    17     5    17   1
    18     6    18   1
    19     6    19   1
    20     6    20   1
    21     8    21   1
    22     9    22   1
    23    10    23   1
    24    12    24   1
    25    12    25   1
    26    12    26   1
@<TRIPOS>SUBSTRUCTURE
     1  MFU      1

