@<TRIPOS>MOLECULE
2jdm_ligand_034
    26    26
SMALL
GAST_HUCK
****
This file was generated by PARSER (from files_GN.cpp)

@<TRIPOS>ATOM
      1 C1         15.6763    9.6294   -2.0268 C.3         1 MFU       0.1875
      2 C2         15.4554   11.1493   -1.7866 C.3         1 MFU       0.1341
      3 C3         14.0136   11.5589   -2.1961 C.3         1 MFU       0.1140
      4 C4         13.6643   11.0834   -3.6379 C.3         1 MFU       0.1095
      5 C5         14.0611    9.5927   -3.8895 C.3         1 MFU       0.0873
      6 C6         13.0438    8.5330   -3.3956 C.3         1 MFU      -0.0361
      7 O1         17.0444    9.2307   -1.8083 O.3         1 MFU      -0.3520
      8 O2         16.4147   11.8964   -2.5318 O.3         1 MFU      -0.3841
      9 O3         13.0705   11.0420   -1.2556 O.3         1 MFU      -0.3864
     10 O4         12.2931   11.3267   -3.9333 O.3         1 MFU      -0.3866
     11 O5         15.3930    9.3091   -3.4057 O.3         1 MFU      -0.3431
     12 CM         17.3176    7.8172   -1.8088 C.3         1 MFU       0.0395
     13 H1         15.0178    9.0510   -1.3703 H           1 MFU       0.0937
     14 H2         15.6024   11.3818   -0.7295 H           1 MFU       0.0671
     15 H3         13.9248   12.6509   -2.1601 H           1 MFU       0.0648
     16 H4         14.2368   11.6983   -4.3323 H           1 MFU       0.0646
     17 H5         14.1158    9.4642   -4.9758 H           1 MFU       0.0621
     18 H6         13.4263    7.5326   -3.6120 H           1 MFU       0.0255
     19 H7         12.0894    8.6489   -3.9093 H           1 MFU       0.0255
     20 H8         12.8747    8.6157   -2.3223 H           1 MFU       0.0255
     21 H9         16.3304   12.8191   -2.2146 H           1 MFU       0.2101
     22 H10        13.2757   11.5014   -0.4131 H           1 MFU       0.2100
     23 H11        11.7906   10.8860   -3.2152 H           1 MFU       0.2100
     24 H12        18.3722    7.6777   -1.5700 H           1 MFU       0.0525
     25 H13        17.1214    7.3859   -2.7952 H           1 MFU       0.0525
     26 H14        16.7252    7.2855   -1.0613 H           1 MFU       0.0525
@<TRIPOS>BOND
     1     1     2   1
     2     1     7   1
     3     1    11   1
     4     2     3   1
     5     2     8   1
     6     3     4   1
     7     3     9   1
     8     4     5   1
     9     4    10   1
    10     5     6   1
    11     5    11   1
    12     7    12   1
    13     1    13   1
    14     2    14   1
    15     3    15   1
    16     4    16   1
    17     5    17   1
    18     6    18   1
    19     6    19   1
    20     6    20   1
    21     8    21   1
    22     9    22   1
    23    10    23   1
    24    12    24   1
    25    12    25   1
    26    12    26   1
@<TRIPOS>SUBSTRUCTURE
     1  MFU      1

