@<TRIPOS>MOLECULE
2jdm_ligand_026
    26    26
SMALL
GAST_HUCK
****
This file was generated by PARSER (from files_GN.cpp)

@<TRIPOS>ATOM
      1 C1         14.4453    6.3214   -5.4150 C.3         1 MFU       0.1875
      2 C2         13.2456    6.9803   -6.1575 C.3         1 MFU       0.1341
      3 C3         12.0326    7.1715   -5.1992 C.3         1 MFU       0.1140
      4 C4         11.6615    5.8458   -4.4760 C.3         1 MFU       0.1095
      5 C5         12.9059    5.1474   -3.8445 C.3         1 MFU       0.0873
      6 C6         13.3527    5.6805   -2.4588 C.3         1 MFU      -0.0361
      7 O1         15.5306    5.8809   -6.2448 O.3         1 MFU      -0.3520
      8 O2         12.8730    6.2055   -7.2985 O.3         1 MFU      -0.3841
      9 O3         12.3315    8.1934   -4.2461 O.3         1 MFU      -0.3864
     10 O4         10.5961    6.0265   -3.5387 O.3         1 MFU      -0.3866
     11 O5         14.0122    5.1101   -4.7729 O.3         1 MFU      -0.3431
     12 CM         15.8121    6.6038   -7.4557 C.3         1 MFU       0.0395
     13 H1         14.8316    7.0153   -4.6773 H           1 MFU       0.0937
     14 H2         13.5377    7.9703   -6.5321 H           1 MFU       0.0671
     15 H3         11.1631    7.5200   -5.7714 H           1 MFU       0.0648
     16 H4         11.2630    5.1687   -5.2377 H           1 MFU       0.0646
     17 H5         12.6340    4.1023   -3.6767 H           1 MFU       0.0621
     18 H6         14.2622    5.1641   -2.1356 H           1 MFU       0.0255
     19 H7         12.5749    5.4914   -1.7121 H           1 MFU       0.0255
     20 H8         13.5614    6.7577   -2.4831 H           1 MFU       0.0255
     21 H9         12.7193    5.2982   -6.9571 H           1 MFU       0.2101
     22 H10        11.4665    8.4350   -3.8208 H           1 MFU       0.2100
     23 H11        10.9522    6.6073   -2.8350 H           1 MFU       0.2100
     24 H12        16.8215    6.3283   -7.7818 H           1 MFU       0.0525
     25 H13        15.7767    7.6896   -7.3128 H           1 MFU       0.0525
     26 H14        15.0976    6.3042   -8.2335 H           1 MFU       0.0525
@<TRIPOS>BOND
     1     1     2   1
     2     1     7   1
     3     1    11   1
     4     2     3   1
     5     2     8   1
     6     3     4   1
     7     3     9   1
     8     4     5   1
     9     4    10   1
    10     5     6   1
    11     5    11   1
    12     7    12   1
    13     1    13   1
    14     2    14   1
    15     3    15   1
    16     4    16   1
    17     5    17   1
    18     6    18   1
    19     6    19   1
    20     6    20   1
    21     8    21   1
    22     9    22   1
    23    10    23   1
    24    12    24   1
    25    12    25   1
    26    12    26   1
@<TRIPOS>SUBSTRUCTURE
     1  MFU      1

