@<TRIPOS>MOLECULE
2jdm_ligand_016
    26    26
SMALL
GAST_HUCK
****
This file was generated by PARSER (from files_GN.cpp)

@<TRIPOS>ATOM
      1 C1         10.1769    5.7034   -4.7466 C.3         1 MFU       0.1875
      2 C2          9.9639    4.2203   -4.3212 C.3         1 MFU       0.1341
      3 C3         11.2538    3.6410   -3.6679 C.3         1 MFU       0.1140
      4 C4         12.4838    3.8837   -4.5809 C.3         1 MFU       0.1095
      5 C5         12.6101    5.3691   -5.0469 C.3         1 MFU       0.0873
      6 C6         13.2082    6.3498   -4.0037 C.3         1 MFU      -0.0361
      7 O1          9.0158    6.3194   -5.3535 O.3         1 MFU      -0.3520
      8 O2          9.6087    3.4103   -5.4410 O.3         1 MFU      -0.3841
      9 O3         11.4597    4.1995   -2.3682 O.3         1 MFU      -0.3864
     10 O4         13.6785    3.4311   -3.9456 O.3         1 MFU      -0.3866
     11 O5         11.3573    5.8545   -5.5732 O.3         1 MFU      -0.3431
     12 CM          8.7319    6.0492   -6.7380 C.3         1 MFU       0.0395
     13 H1         10.3273    6.2831   -3.8324 H           1 MFU       0.0937
     14 H2          9.1459    4.1683   -3.6005 H           1 MFU       0.0671
     15 H3         11.1308    2.5628   -3.5251 H           1 MFU       0.0648
     16 H4         12.3558    3.2653   -5.4766 H           1 MFU       0.0646
     17 H5         13.3067    5.3750   -5.8899 H           1 MFU       0.0621
     18 H6         13.2675    7.3508   -4.4359 H           1 MFU       0.0255
     19 H7         14.2162    6.0401   -3.7221 H           1 MFU       0.0255
     20 H8         12.6000    6.4023   -3.1033 H           1 MFU       0.0255
     21 H9          9.4239    2.5196   -5.0748 H           1 MFU       0.2101
     22 H10        10.6599    3.9761   -1.8460 H           1 MFU       0.2100
     23 H11        14.3730    3.4970   -4.6358 H           1 MFU       0.2100
     24 H12         7.8531    6.6236   -7.0202 H           1 MFU       0.0525
     25 H13         8.5077    4.9987   -6.9094 H           1 MFU       0.0525
     26 H14         9.5605    6.3564   -7.3792 H           1 MFU       0.0525
@<TRIPOS>BOND
     1     1     2   1
     2     1     7   1
     3     1    11   1
     4     2     3   1
     5     2     8   1
     6     3     4   1
     7     3     9   1
     8     4     5   1
     9     4    10   1
    10     5     6   1
    11     5    11   1
    12     7    12   1
    13     1    13   1
    14     2    14   1
    15     3    15   1
    16     4    16   1
    17     5    17   1
    18     6    18   1
    19     6    19   1
    20     6    20   1
    21     8    21   1
    22     9    22   1
    23    10    23   1
    24    12    24   1
    25    12    25   1
    26    12    26   1
@<TRIPOS>SUBSTRUCTURE
     1  MFU      1

