@<TRIPOS>MOLECULE
2jdm_ligand_024
    26    26
SMALL
GAST_HUCK
****
This file was generated by PARSER (from files_GN.cpp)

@<TRIPOS>ATOM
      1 C1         16.1078   12.0055   -0.4978 C.3         1 MFU       0.1875
      2 C2         14.9072   11.1139   -0.9205 C.3         1 MFU       0.1341
      3 C3         14.9240   10.8402   -2.4497 C.3         1 MFU       0.1140
      4 C4         16.3132   10.3166   -2.9098 C.3         1 MFU       0.1095
      5 C5         17.4285   11.2910   -2.4267 C.3         1 MFU       0.0873
      6 C6         18.8516   10.8072   -2.7912 C.3         1 MFU      -0.0361
      7 O1         15.8884   13.3652   -0.9344 O.3         1 MFU      -0.3520
      8 O2         13.6883   11.7549   -0.5448 O.3         1 MFU      -0.3841
      9 O3         13.9018    9.9026   -2.7876 O.3         1 MFU      -0.3864
     10 O4         16.5428    9.0038   -2.3896 O.3         1 MFU      -0.3866
     11 O5         17.3543   11.4609   -0.9930 O.3         1 MFU      -0.3431
     12 CM         16.8911   14.3142   -0.5363 C.3         1 MFU       0.0395
     13 H1         16.1522   11.9853    0.5948 H           1 MFU       0.0937
     14 H2         14.9722   10.1616   -0.3854 H           1 MFU       0.0671
     15 H3         14.7032   11.7730   -2.9789 H           1 MFU       0.0648
     16 H4         16.3305   10.2583   -4.0025 H           1 MFU       0.0646
     17 H5         17.2868   12.2601   -2.9169 H           1 MFU       0.0621
     18 H6         19.5882   11.5489   -2.4772 H           1 MFU       0.0255
     19 H7         18.9395   10.6675   -3.8700 H           1 MFU       0.0255
     20 H8         19.0771    9.8628   -2.2922 H           1 MFU       0.0255
     21 H9         12.9787   11.0997   -0.7056 H           1 MFU       0.2101
     22 H10        13.7737    9.9965   -3.7563 H           1 MFU       0.2100
     23 H11        15.8810    8.4288   -2.8302 H           1 MFU       0.2100
     24 H12        16.5984   15.2959   -0.9107 H           1 MFU       0.0525
     25 H13        17.8651   14.0606   -0.9599 H           1 MFU       0.0525
     26 H14        16.9696   14.3710    0.5511 H           1 MFU       0.0525
@<TRIPOS>BOND
     1     1     2   1
     2     1     7   1
     3     1    11   1
     4     2     3   1
     5     2     8   1
     6     3     4   1
     7     3     9   1
     8     4     5   1
     9     4    10   1
    10     5     6   1
    11     5    11   1
    12     7    12   1
    13     1    13   1
    14     2    14   1
    15     3    15   1
    16     4    16   1
    17     5    17   1
    18     6    18   1
    19     6    19   1
    20     6    20   1
    21     8    21   1
    22     9    22   1
    23    10    23   1
    24    12    24   1
    25    12    25   1
    26    12    26   1
@<TRIPOS>SUBSTRUCTURE
     1  MFU      1

