@<TRIPOS>MOLECULE
2jdm_ligand_021
    26    26
SMALL
GAST_HUCK
****
This file was generated by PARSER (from files_GN.cpp)

@<TRIPOS>ATOM
      1 C1         15.0072    8.8715   -2.8994 C.3         1 MFU       0.1875
      2 C2         14.3453    9.2914   -1.5524 C.3         1 MFU       0.1341
      3 C3         14.6888   10.7641   -1.1953 C.3         1 MFU       0.1140
      4 C4         14.3665   11.7219   -2.3748 C.3         1 MFU       0.1095
      5 C5         15.0523   11.2106   -3.6772 C.3         1 MFU       0.0873
      6 C6         14.6789   12.0638   -4.9140 C.3         1 MFU      -0.0361
      7 O1         16.4462    8.7422   -2.8153 O.3         1 MFU      -0.3520
      8 O2         14.7389    8.4304   -0.4880 O.3         1 MFU      -0.3841
      9 O3         13.9834   11.1734   -0.0219 O.3         1 MFU      -0.3864
     10 O4         12.9506   11.8432   -2.5423 O.3         1 MFU      -0.3866
     11 O5         14.6870    9.8323   -3.9340 O.3         1 MFU      -0.3431
     12 CM         16.9733    7.4448   -2.4807 C.3         1 MFU       0.0395
     13 H1         14.5611    7.9252   -3.2219 H           1 MFU       0.0937
     14 H2         13.2604    9.1993   -1.6574 H           1 MFU       0.0671
     15 H3         15.7577   10.8317   -0.9701 H           1 MFU       0.0648
     16 H4         14.7519   12.7165   -2.1318 H           1 MFU       0.0646
     17 H5         16.1389   11.2820   -3.5557 H           1 MFU       0.0621
     18 H6         15.2225   11.7106   -5.7923 H           1 MFU       0.0255
     19 H7         14.9355   13.1129   -4.7489 H           1 MFU       0.0255
     20 H8         13.6095   11.9913   -5.1184 H           1 MFU       0.0255
     21 H9         14.2949    8.7900    0.3075 H           1 MFU       0.2101
     22 H10        13.0324   11.0496   -0.2317 H           1 MFU       0.2100
     23 H11        12.6387   10.9619   -2.8393 H           1 MFU       0.2100
     24 H12        18.0536    7.5379   -2.3834 H           1 MFU       0.0525
     25 H13        16.7591    6.7153   -3.2647 H           1 MFU       0.0525
     26 H14        16.5754    7.0757   -1.5366 H           1 MFU       0.0525
@<TRIPOS>BOND
     1     1     2   1
     2     1     7   1
     3     1    11   1
     4     2     3   1
     5     2     8   1
     6     3     4   1
     7     3     9   1
     8     4     5   1
     9     4    10   1
    10     5     6   1
    11     5    11   1
    12     7    12   1
    13     1    13   1
    14     2    14   1
    15     3    15   1
    16     4    16   1
    17     5    17   1
    18     6    18   1
    19     6    19   1
    20     6    20   1
    21     8    21   1
    22     9    22   1
    23    10    23   1
    24    12    24   1
    25    12    25   1
    26    12    26   1
@<TRIPOS>SUBSTRUCTURE
     1  MFU      1

