@<TRIPOS>MOLECULE
2jdm_ligand_020
    26    26
SMALL
GAST_HUCK
****
This file was generated by PARSER (from files_GN.cpp)

@<TRIPOS>ATOM
      1 C1          8.6996   -0.7003   -5.8800 C.3         1 MFU       0.1875
      2 C2          8.3187   -0.6678   -4.3687 C.3         1 MFU       0.1341
      3 C3          6.8578   -1.1569   -4.1555 C.3         1 MFU       0.1140
      4 C4          6.6328   -2.5381   -4.8278 C.3         1 MFU       0.1095
      5 C5          7.0455   -2.4583   -6.3277 C.3         1 MFU       0.0873
      6 C6          6.9141   -3.8170   -7.0574 C.3         1 MFU      -0.0361
      7 O1          8.0120    0.3124   -6.6482 O.3         1 MFU      -0.3520
      8 O2          8.5101    0.6317   -3.8110 O.3         1 MFU      -0.3841
      9 O3          6.5294   -1.2469   -2.7714 O.3         1 MFU      -0.3864
     10 O4          7.3932   -3.5485   -4.1614 O.3         1 MFU      -0.3866
     11 O5          8.4103   -1.9994   -6.4469 O.3         1 MFU      -0.3431
     12 CM          8.7262    1.5325   -6.9085 C.3         1 MFU       0.0395
     13 H1          9.7873   -0.5821   -5.9620 H           1 MFU       0.0937
     14 H2          8.9915   -1.3418   -3.8324 H           1 MFU       0.0671
     15 H3          6.1732   -0.4281   -4.6051 H           1 MFU       0.0648
     16 H4          5.5721   -2.8028   -4.7559 H           1 MFU       0.0646
     17 H5          6.3787   -1.7578   -6.8411 H           1 MFU       0.0621
     18 H6          7.1701   -3.6982   -8.1117 H           1 MFU       0.0255
     19 H7          5.8893   -4.1862   -6.9884 H           1 MFU       0.0255
     20 H8          7.5878   -4.5559   -6.6191 H           1 MFU       0.0255
     21 H9          7.8181    1.2055   -4.2061 H           1 MFU       0.2101
     22 H10         6.9329   -0.4612   -2.3518 H           1 MFU       0.2100
     23 H11         7.2937   -3.3806   -3.1980 H           1 MFU       0.2100
     24 H12         8.0634    2.2137   -7.4464 H           1 MFU       0.0525
     25 H13         9.6008    1.3401   -7.5325 H           1 MFU       0.0525
     26 H14         9.0441    2.0236   -5.9874 H           1 MFU       0.0525
@<TRIPOS>BOND
     1     1     2   1
     2     1     7   1
     3     1    11   1
     4     2     3   1
     5     2     8   1
     6     3     4   1
     7     3     9   1
     8     4     5   1
     9     4    10   1
    10     5     6   1
    11     5    11   1
    12     7    12   1
    13     1    13   1
    14     2    14   1
    15     3    15   1
    16     4    16   1
    17     5    17   1
    18     6    18   1
    19     6    19   1
    20     6    20   1
    21     8    21   1
    22     9    22   1
    23    10    23   1
    24    12    24   1
    25    12    25   1
    26    12    26   1
@<TRIPOS>SUBSTRUCTURE
     1  MFU      1

