@<TRIPOS>MOLECULE
2jdm_ligand_002
    26    26
SMALL
GAST_HUCK
****
This file was generated by PARSER (from files_GN.cpp)

@<TRIPOS>ATOM
      1 C1         12.8850    5.4285   -3.7584 C.3         1 MFU       0.1875
      2 C2         11.7814    4.5082   -3.1677 C.3         1 MFU       0.1341
      3 C3         10.3691    4.8624   -3.7084 C.3         1 MFU       0.1140
      4 C4         10.0953    6.3882   -3.6041 C.3         1 MFU       0.1095
      5 C5         11.2608    7.2419   -4.1902 C.3         1 MFU       0.0873
      6 C6         11.3024    7.3442   -5.7408 C.3         1 MFU      -0.0361
      7 O1         14.1097    5.1247   -3.0617 O.3         1 MFU      -0.3520
      8 O2         11.7829    4.5975   -1.7397 O.3         1 MFU      -0.3841
      9 O3         10.2175    4.3946   -5.0476 O.3         1 MFU      -0.3864
     10 O4          8.8284    6.7130   -4.1803 O.3         1 MFU      -0.3866
     11 O5         12.5303    6.8262   -3.6261 O.3         1 MFU      -0.3431
     12 CM         14.9452    6.2359   -2.6999 C.3         1 MFU       0.0395
     13 H1         13.0307    5.1889   -4.8173 H           1 MFU       0.0937
     14 H2         12.0124    3.4714   -3.4244 H           1 MFU       0.0671
     15 H3          9.6244    4.3291   -3.1100 H           1 MFU       0.0648
     16 H4         10.0181    6.6268   -2.5397 H           1 MFU       0.0646
     17 H5         11.1221    8.2653   -3.8336 H           1 MFU       0.0621
     18 H6         12.1839    7.9047   -6.0535 H           1 MFU       0.0255
     19 H7         10.4174    7.8702   -6.1055 H           1 MFU       0.0255
     20 H8         11.3442    6.3666   -6.2188 H           1 MFU       0.0255
     21 H9         11.8964    5.5478   -1.5257 H           1 MFU       0.2101
     22 H10         9.2857    4.5887   -5.2839 H           1 MFU       0.2100
     23 H11         8.3079    7.1002   -3.4438 H           1 MFU       0.2100
     24 H12        15.9131    5.8550   -2.3778 H           1 MFU       0.0525
     25 H13        14.5010    6.7778   -1.8635 H           1 MFU       0.0525
     26 H14        15.1102    6.9173   -3.5375 H           1 MFU       0.0525
@<TRIPOS>BOND
     1     1     2   1
     2     1     7   1
     3     1    11   1
     4     2     3   1
     5     2     8   1
     6     3     4   1
     7     3     9   1
     8     4     5   1
     9     4    10   1
    10     5     6   1
    11     5    11   1
    12     7    12   1
    13     1    13   1
    14     2    14   1
    15     3    15   1
    16     4    16   1
    17     5    17   1
    18     6    18   1
    19     6    19   1
    20     6    20   1
    21     8    21   1
    22     9    22   1
    23    10    23   1
    24    12    24   1
    25    12    25   1
    26    12    26   1
@<TRIPOS>SUBSTRUCTURE
     1  MFU      1

