@<TRIPOS>MOLECULE
2jdm_ligand_031
    26    26
SMALL
GAST_HUCK
****
This file was generated by PARSER (from files_GN.cpp)

@<TRIPOS>ATOM
      1 C1          8.9567    0.0593   -5.6881 C.3         1 MFU       0.1875
      2 C2          7.8057   -0.4762   -4.7882 C.3         1 MFU       0.1341
      3 C3          7.5179   -1.9728   -5.0917 C.3         1 MFU       0.1140
      4 C4          8.8216   -2.8137   -5.0045 C.3         1 MFU       0.1095
      5 C5          9.9079   -2.1845   -5.9297 C.3         1 MFU       0.0873
      6 C6         11.2665   -2.9205   -5.8533 C.3         1 MFU      -0.0361
      7 O1          8.4961    0.1940   -7.0513 O.3         1 MFU      -0.3520
      8 O2          6.6202    0.2947   -4.9762 O.3         1 MFU      -0.3841
      9 O3          6.5378   -2.4933   -4.1935 O.3         1 MFU      -0.3864
     10 O4          9.2993   -2.8579   -3.6570 O.3         1 MFU      -0.3866
     11 O5         10.1205   -0.7951   -5.5832 O.3         1 MFU      -0.3431
     12 CM          9.4153    0.8337   -7.9545 C.3         1 MFU       0.0395
     13 H1          9.2361    1.0470   -5.3067 H           1 MFU       0.0937
     14 H2          8.1044   -0.3781   -3.7396 H           1 MFU       0.0671
     15 H3          7.1085   -2.0609   -6.1032 H           1 MFU       0.0648
     16 H4          8.6123   -3.8382   -5.3276 H           1 MFU       0.0646
     17 H5          9.5681   -2.2505   -6.9696 H           1 MFU       0.0621
     18 H6         11.9719   -2.4692   -6.5558 H           1 MFU       0.0255
     19 H7         11.1428   -3.9742   -6.1148 H           1 MFU       0.0255
     20 H8         11.6880   -2.8512   -4.8481 H           1 MFU       0.0255
     21 H9          6.8675    1.2115   -4.7318 H           1 MFU       0.2101
     22 H10         5.7347   -1.9483   -4.3389 H           1 MFU       0.2100
     23 H11         8.5757   -3.2355   -3.1099 H           1 MFU       0.2100
     24 H12         8.9598    0.8623   -8.9438 H           1 MFU       0.0525
     25 H13        10.3551    0.2811   -8.0254 H           1 MFU       0.0525
     26 H14         9.6185    1.8608   -7.6415 H           1 MFU       0.0525
@<TRIPOS>BOND
     1     1     2   1
     2     1     7   1
     3     1    11   1
     4     2     3   1
     5     2     8   1
     6     3     4   1
     7     3     9   1
     8     4     5   1
     9     4    10   1
    10     5     6   1
    11     5    11   1
    12     7    12   1
    13     1    13   1
    14     2    14   1
    15     3    15   1
    16     4    16   1
    17     5    17   1
    18     6    18   1
    19     6    19   1
    20     6    20   1
    21     8    21   1
    22     9    22   1
    23    10    23   1
    24    12    24   1
    25    12    25   1
    26    12    26   1
@<TRIPOS>SUBSTRUCTURE
     1  MFU      1

