@<TRIPOS>MOLECULE
2jdm_ligand_005
    26    26
SMALL
GAST_HUCK
****
This file was generated by PARSER (from files_GN.cpp)

@<TRIPOS>ATOM
      1 C1         10.8142    7.4531   -5.1113 C.3         1 MFU       0.1875
      2 C2         10.0755    6.5462   -4.0817 C.3         1 MFU       0.1341
      3 C3         10.4262    5.0502   -4.2872 C.3         1 MFU       0.1140
      4 C4         11.9653    4.8688   -4.2761 C.3         1 MFU       0.1095
      5 C5         12.6070    5.8202   -5.3260 C.3         1 MFU       0.0873
      6 C6         14.1473    5.6855   -5.3930 C.3         1 MFU      -0.0361
      7 O1         10.2444    7.2609   -6.4297 O.3         1 MFU      -0.3520
      8 O2          8.6674    6.7385   -4.1805 O.3         1 MFU      -0.3841
      9 O3          9.8528    4.2100   -3.2932 O.3         1 MFU      -0.3864
     10 O4         12.4912    5.0936   -2.9650 O.3         1 MFU      -0.3866
     11 O5         12.2387    7.1927   -5.0832 O.3         1 MFU      -0.3431
     12 CM         10.4415    8.3420   -7.3559 C.3         1 MFU       0.0395
     13 H1         10.6611    8.4949   -4.8073 H           1 MFU       0.0937
     14 H2         10.3861    6.8462   -3.0806 H           1 MFU       0.0671
     15 H3         10.0408    4.7161   -5.2501 H           1 MFU       0.0648
     16 H4         12.1808    3.8380   -4.5551 H           1 MFU       0.0646
     17 H5         12.2493    5.5287   -6.3243 H           1 MFU       0.0621
     18 H6         14.5370    6.2897   -6.2166 H           1 MFU       0.0255
     19 H7         14.4180    4.6446   -5.5678 H           1 MFU       0.0255
     20 H8         14.6079    6.0273   -4.4623 H           1 MFU       0.0255
     21 H9          8.4030    7.1315   -3.3148 H           1 MFU       0.2101
     22 H10         9.0403    3.8120   -3.6925 H           1 MFU       0.2100
     23 H11        12.1548    5.9514   -2.6576 H           1 MFU       0.2100
     24 H12         9.9990    8.0558   -8.3160 H           1 MFU       0.0525
     25 H13        11.5071    8.5330   -7.5196 H           1 MFU       0.0525
     26 H14         9.9492    9.2490   -7.0077 H           1 MFU       0.0525
@<TRIPOS>BOND
     1     1     2   1
     2     1     7   1
     3     1    11   1
     4     2     3   1
     5     2     8   1
     6     3     4   1
     7     3     9   1
     8     4     5   1
     9     4    10   1
    10     5     6   1
    11     5    11   1
    12     7    12   1
    13     1    13   1
    14     2    14   1
    15     3    15   1
    16     4    16   1
    17     5    17   1
    18     6    18   1
    19     6    19   1
    20     6    20   1
    21     8    21   1
    22     9    22   1
    23    10    23   1
    24    12    24   1
    25    12    25   1
    26    12    26   1
@<TRIPOS>SUBSTRUCTURE
     1  MFU      1

