@<TRIPOS>MOLECULE
2jdm_ligand_009
    26    26
SMALL
GAST_HUCK
****
This file was generated by PARSER (from files_GN.cpp)

@<TRIPOS>ATOM
      1 C1         12.8403    5.2363   -5.1665 C.3         1 MFU       0.1875
      2 C2         12.4152    5.7888   -3.7802 C.3         1 MFU       0.1341
      3 C3         11.6406    4.7082   -2.9757 C.3         1 MFU       0.1140
      4 C4         10.4596    4.1402   -3.8159 C.3         1 MFU       0.1095
      5 C5         10.8961    3.7152   -5.2545 C.3         1 MFU       0.0873
      6 C6         11.5906    2.3310   -5.3595 C.3         1 MFU      -0.0361
      7 O1         13.4706    6.3002   -5.9074 O.3         1 MFU      -0.3520
      8 O2         11.5982    6.9482   -3.9615 O.3         1 MFU      -0.3841
      9 O3         12.5437    3.6819   -2.5552 O.3         1 MFU      -0.3864
     10 O4          9.8171    3.0710   -3.1221 O.3         1 MFU      -0.3866
     11 O5         11.6818    4.7530   -5.8876 O.3         1 MFU      -0.3431
     12 CM         14.0728    5.9138   -7.1538 C.3         1 MFU       0.0395
     13 H1         13.5660    4.4301   -5.0164 H           1 MFU       0.0937
     14 H2         13.3066    6.0903   -3.2219 H           1 MFU       0.0671
     15 H3         11.2403    5.1679   -2.0665 H           1 MFU       0.0648
     16 H4          9.7150    4.9377   -3.9159 H           1 MFU       0.0646
     17 H5          9.9830    3.6343   -5.8521 H           1 MFU       0.0621
     18 H6         11.8590    2.1323   -6.3984 H           1 MFU       0.0255
     19 H7         10.9173    1.5385   -5.0254 H           1 MFU       0.0255
     20 H8         12.4982    2.2939   -4.7580 H           1 MFU       0.0255
     21 H9         11.4001    7.2725   -3.0593 H           1 MFU       0.2101
     22 H10        12.0041    3.0675   -2.0144 H           1 MFU       0.2100
     23 H11         8.9768    2.9167   -3.6048 H           1 MFU       0.2100
     24 H12        14.5128    6.8007   -7.6089 H           1 MFU       0.0525
     25 H13        13.3312    5.5045   -7.8432 H           1 MFU       0.0525
     26 H14        14.8650    5.1808   -6.9955 H           1 MFU       0.0525
@<TRIPOS>BOND
     1     1     2   1
     2     1     7   1
     3     1    11   1
     4     2     3   1
     5     2     8   1
     6     3     4   1
     7     3     9   1
     8     4     5   1
     9     4    10   1
    10     5     6   1
    11     5    11   1
    12     7    12   1
    13     1    13   1
    14     2    14   1
    15     3    15   1
    16     4    16   1
    17     5    17   1
    18     6    18   1
    19     6    19   1
    20     6    20   1
    21     8    21   1
    22     9    22   1
    23    10    23   1
    24    12    24   1
    25    12    25   1
    26    12    26   1
@<TRIPOS>SUBSTRUCTURE
     1  MFU      1

