@<TRIPOS>MOLECULE
2jdm_ligand_004
    26    26
SMALL
GAST_HUCK
****
This file was generated by PARSER (from files_GN.cpp)

@<TRIPOS>ATOM
      1 C1         10.3835    4.3215   -4.1116 C.3         1 MFU       0.1875
      2 C2         10.8070    5.5573   -3.2819 C.3         1 MFU       0.1341
      3 C3         10.4732    6.8613   -4.0570 C.3         1 MFU       0.1140
      4 C4         11.1067    6.8306   -5.4774 C.3         1 MFU       0.1095
      5 C5         10.7905    5.5063   -6.2423 C.3         1 MFU       0.0873
      6 C6          9.3988    5.4505   -6.9277 C.3         1 MFU      -0.0361
      7 O1         10.7816    3.1368   -3.3935 O.3         1 MFU      -0.3520
      8 O2         12.2073    5.4981   -2.9981 O.3         1 MFU      -0.3841
      9 O3          9.0574    7.0555   -4.1438 O.3         1 MFU      -0.3864
     10 O4         10.7119    7.9785   -6.2289 O.3         1 MFU      -0.3866
     11 O5         11.0255    4.3468   -5.4077 O.3         1 MFU      -0.3431
     12 CM         10.1327    1.9223   -3.8011 C.3         1 MFU       0.0395
     13 H1          9.2966    4.3355   -4.2265 H           1 MFU       0.0937
     14 H2         10.2786    5.5569   -2.3231 H           1 MFU       0.0671
     15 H3         10.8840    7.7114   -3.5038 H           1 MFU       0.0648
     16 H4         12.1929    6.8917   -5.3569 H           1 MFU       0.0646
     17 H5         11.5199    5.4282   -7.0533 H           1 MFU       0.0621
     18 H6          9.2708    4.4888   -7.4279 H           1 MFU       0.0255
     19 H7          9.3130    6.2380   -7.6787 H           1 MFU       0.0255
     20 H8          8.5901    5.5736   -6.2092 H           1 MFU       0.0255
     21 H9         12.3373    6.1334   -2.2624 H           1 MFU       0.2101
     22 H10         8.7517    7.1702   -3.2195 H           1 MFU       0.2100
     23 H11        10.9808    8.7494   -5.6849 H           1 MFU       0.2100
     24 H12        10.5967    1.0907   -3.2722 H           1 MFU       0.0525
     25 H13        10.2368    1.7508   -4.8751 H           1 MFU       0.0525
     26 H14         9.0738    1.9439   -3.5337 H           1 MFU       0.0525
@<TRIPOS>BOND
     1     1     2   1
     2     1     7   1
     3     1    11   1
     4     2     3   1
     5     2     8   1
     6     3     4   1
     7     3     9   1
     8     4     5   1
     9     4    10   1
    10     5     6   1
    11     5    11   1
    12     7    12   1
    13     1    13   1
    14     2    14   1
    15     3    15   1
    16     4    16   1
    17     5    17   1
    18     6    18   1
    19     6    19   1
    20     6    20   1
    21     8    21   1
    22     9    22   1
    23    10    23   1
    24    12    24   1
    25    12    25   1
    26    12    26   1
@<TRIPOS>SUBSTRUCTURE
     1  MFU      1

