@<TRIPOS>MOLECULE
2jdm_ligand_007
    26    26
SMALL
GAST_HUCK
****
This file was generated by PARSER (from files_GN.cpp)

@<TRIPOS>ATOM
      1 C1         12.1438    2.6883   -4.6491 C.3         1 MFU       0.1875
      2 C2         11.6678    2.9550   -3.1899 C.3         1 MFU       0.1341
      3 C3         12.2474    4.2975   -2.6619 C.3         1 MFU       0.1140
      4 C4         11.9471    5.4730   -3.6332 C.3         1 MFU       0.1095
      5 C5         12.3254    5.0915   -5.0948 C.3         1 MFU       0.0873
      6 C6         11.8641    6.1598   -6.1155 C.3         1 MFU      -0.0361
      7 O1         13.5678    2.4723   -4.8039 O.3         1 MFU      -0.3520
      8 O2         12.0435    1.8927   -2.3160 O.3         1 MFU      -0.3841
      9 O3         11.7183    4.5627   -1.3663 O.3         1 MFU      -0.3864
     10 O4         10.5743    5.8610   -3.5307 O.3         1 MFU      -0.3866
     11 O5         11.7622    3.8113   -5.4747 O.3         1 MFU      -0.3431
     12 CM         14.1073    1.1767   -4.4877 C.3         1 MFU       0.0395
     13 H1         11.5941    1.8227   -5.0341 H           1 MFU       0.0937
     14 H2         10.5753    3.0183   -3.1863 H           1 MFU       0.0671
     15 H3         13.3293    4.2017   -2.5576 H           1 MFU       0.0648
     16 H4         12.5516    6.3371   -3.3352 H           1 MFU       0.0646
     17 H5         13.4172    5.0344   -5.1668 H           1 MFU       0.0621
     18 H6         12.2243    5.9071   -7.1125 H           1 MFU       0.0255
     19 H7         12.2576    7.1390   -5.8398 H           1 MFU       0.0255
     20 H8         10.7722    6.2155   -6.1464 H           1 MFU       0.0255
     21 H9         11.5349    1.1002   -2.5937 H           1 MFU       0.2101
     22 H10        12.0050    5.4727   -1.1478 H           1 MFU       0.2100
     23 H11        10.5580    6.4896   -2.7768 H           1 MFU       0.2100
     24 H12        15.1516    1.1553   -4.8024 H           1 MFU       0.0525
     25 H13        13.5758    0.3804   -5.0126 H           1 MFU       0.0525
     26 H14        14.0860    0.9848   -3.4155 H           1 MFU       0.0525
@<TRIPOS>BOND
     1     1     2   1
     2     1     7   1
     3     1    11   1
     4     2     3   1
     5     2     8   1
     6     3     4   1
     7     3     9   1
     8     4     5   1
     9     4    10   1
    10     5     6   1
    11     5    11   1
    12     7    12   1
    13     1    13   1
    14     2    14   1
    15     3    15   1
    16     4    16   1
    17     5    17   1
    18     6    18   1
    19     6    19   1
    20     6    20   1
    21     8    21   1
    22     9    22   1
    23    10    23   1
    24    12    24   1
    25    12    25   1
    26    12    26   1
@<TRIPOS>SUBSTRUCTURE
     1  MFU      1

