@<TRIPOS>MOLECULE
2jdu_ligand_009
    26    26
SMALL
GAST_HUCK
****
This file was generated by PARSER (from files_GN.cpp)

@<TRIPOS>ATOM
      1 C1        -39.4007   22.3368    8.4120 C.3         1 MFU       0.1875
      2 C2        -38.6247   21.9179    9.6949 C.3         1 MFU       0.1341
      3 C3        -39.2491   22.5972   10.9450 C.3         1 MFU       0.1140
      4 C4        -40.7814   22.3248   11.0212 C.3         1 MFU       0.1095
      5 C5        -41.4586   22.7371    9.6790 C.3         1 MFU       0.0873
      6 C6        -42.9723   22.4120    9.6239 C.3         1 MFU      -0.0361
      7 O1        -39.1278   23.7223    8.0931 O.3         1 MFU      -0.3520
      8 O2        -37.2366   22.2668    9.6099 O.3         1 MFU      -0.3841
      9 O3        -38.5884   22.1229   12.1194 O.3         1 MFU      -0.3864
     10 O4        -40.9968   20.9374   11.3060 O.3         1 MFU      -0.3866
     11 O5        -40.8177   22.0732    8.5667 O.3         1 MFU      -0.3431
     12 CM        -39.5375   24.1557    6.7843 C.3         1 MFU       0.0395
     13 H1        -39.0523   21.7074    7.5883 H           1 MFU       0.0937
     14 H2        -38.7041   20.8315    9.8155 H           1 MFU       0.0671
     15 H3        -39.0821   23.6763   10.8850 H           1 MFU       0.0648
     16 H4        -41.2083   22.9130   11.8397 H           1 MFU       0.0646
     17 H5        -41.3623   23.8231    9.5568 H           1 MFU       0.0621
     18 H6        -43.3979   22.7812    8.6880 H           1 MFU       0.0255
     19 H7        -43.4899   22.8925   10.4555 H           1 MFU       0.0255
     20 H8        -43.1406   21.3337    9.6736 H           1 MFU       0.0255
     21 H9        -36.7327   21.4338    9.4592 H           1 MFU       0.2101
     22 H10       -38.9374   22.6734   12.8489 H           1 MFU       0.2100
     23 H11       -41.9647   20.8331   11.4056 H           1 MFU       0.2100
     24 H12       -39.2438   25.1990    6.6609 H           1 MFU       0.0525
     25 H13       -40.6215   24.0925    6.6694 H           1 MFU       0.0525
     26 H14       -39.0530   23.5670    6.0040 H           1 MFU       0.0525
@<TRIPOS>BOND
     1     1     2   1
     2     1     7   1
     3     1    11   1
     4     2     3   1
     5     2     8   1
     6     3     4   1
     7     3     9   1
     8     4     5   1
     9     4    10   1
    10     5     6   1
    11     5    11   1
    12     7    12   1
    13     1    13   1
    14     2    14   1
    15     3    15   1
    16     4    16   1
    17     5    17   1
    18     6    18   1
    19     6    19   1
    20     6    20   1
    21     8    21   1
    22     9    22   1
    23    10    23   1
    24    12    24   1
    25    12    25   1
    26    12    26   1
@<TRIPOS>SUBSTRUCTURE
     1  MFU      1

