@<TRIPOS>MOLECULE
2jdu_ligand_013
    26    26
SMALL
GAST_HUCK
****
This file was generated by PARSER (from files_GN.cpp)

@<TRIPOS>ATOM
      1 C1        -39.1975   24.2812   10.9277 C.3         1 MFU       0.1875
      2 C2        -38.0541   23.5935   11.7364 C.3         1 MFU       0.1341
      3 C3        -37.7639   22.1703   11.1831 C.3         1 MFU       0.1140
      4 C4        -39.0732   21.3400   11.0863 C.3         1 MFU       0.1095
      5 C5        -40.2118   22.1064   10.3441 C.3         1 MFU       0.0873
      6 C6        -40.1111   22.1342    8.7966 C.3         1 MFU      -0.0361
      7 O1        -39.6328   25.5174   11.5361 O.3         1 MFU      -0.3520
      8 O2        -38.4104   23.5059   13.1182 O.3         1 MFU      -0.3841
      9 O3        -37.0988   22.3046    9.9248 O.3         1 MFU      -0.3864
     10 O4        -38.8485   20.0353   10.5506 O.3         1 MFU      -0.3866
     11 O5        -40.3663   23.4342   10.8956 O.3         1 MFU      -0.3431
     12 CM        -38.8298   26.6820   11.2820 C.3         1 MFU       0.0395
     13 H1        -38.8655   24.4710    9.9017 H           1 MFU       0.0937
     14 H2        -37.1391   24.1919   11.6689 H           1 MFU       0.0671
     15 H3        -37.0751   21.6603   11.8622 H           1 MFU       0.0648
     16 H4        -39.4179   21.1696   12.1104 H           1 MFU       0.0646
     17 H5        -41.1449   21.5827   10.5724 H           1 MFU       0.0621
     18 H6        -40.9553   22.6909    8.3857 H           1 MFU       0.0255
     19 H7        -40.1455   21.1212    8.3938 H           1 MFU       0.0255
     20 H8        -39.1909   22.6056    8.4555 H           1 MFU       0.0255
     21 H9        -38.4868   24.4349   13.4258 H           1 MFU       0.2101
     22 H10       -36.6497   21.4474    9.7365 H           1 MFU       0.2100
     23 H11       -38.6125   20.1465    9.6060 H           1 MFU       0.2100
     24 H12       -39.2783   27.5268   11.8039 H           1 MFU       0.0525
     25 H13       -38.8049   26.9102   10.2148 H           1 MFU       0.0525
     26 H14       -37.8123   26.5526   11.6506 H           1 MFU       0.0525
@<TRIPOS>BOND
     1     1     2   1
     2     1     7   1
     3     1    11   1
     4     2     3   1
     5     2     8   1
     6     3     4   1
     7     3     9   1
     8     4     5   1
     9     4    10   1
    10     5     6   1
    11     5    11   1
    12     7    12   1
    13     1    13   1
    14     2    14   1
    15     3    15   1
    16     4    16   1
    17     5    17   1
    18     6    18   1
    19     6    19   1
    20     6    20   1
    21     8    21   1
    22     9    22   1
    23    10    23   1
    24    12    24   1
    25    12    25   1
    26    12    26   1
@<TRIPOS>SUBSTRUCTURE
     1  MFU      1

