@<TRIPOS>MOLECULE
2jdu_ligand_019
    26    26
SMALL
GAST_HUCK
****
This file was generated by PARSER (from files_GN.cpp)

@<TRIPOS>ATOM
      1 C1        -40.9785   22.5583   10.5774 C.3         1 MFU       0.1875
      2 C2        -39.9079   23.5522   10.0426 C.3         1 MFU       0.1341
      3 C3        -38.5987   23.4118   10.8686 C.3         1 MFU       0.1140
      4 C4        -38.0831   21.9477   10.8033 C.3         1 MFU       0.1095
      5 C5        -39.2187   20.9840   11.2688 C.3         1 MFU       0.0873
      6 C6        -38.8259   19.4920   11.1637 C.3         1 MFU      -0.0361
      7 O1        -41.4030   22.8085   11.9398 O.3         1 MFU      -0.3520
      8 O2        -40.3833   24.8955   10.0411 O.3         1 MFU      -0.3841
      9 O3        -37.5887   24.2976   10.3910 O.3         1 MFU      -0.3864
     10 O4        -37.6460   21.6784    9.4659 O.3         1 MFU      -0.3866
     11 O5        -40.4388   21.2168   10.5224 O.3         1 MFU      -0.3431
     12 CM        -42.3801   23.8413   12.1662 C.3         1 MFU       0.0395
     13 H1        -41.8446   22.5667    9.9029 H           1 MFU       0.0937
     14 H2        -39.7014   23.2906    9.0008 H           1 MFU       0.0671
     15 H3        -38.8045   23.6777   11.9113 H           1 MFU       0.0648
     16 H4        -37.2232   21.8531   11.4712 H           1 MFU       0.0646
     17 H5        -39.4185   21.1739   12.3292 H           1 MFU       0.0621
     18 H6        -39.6240   18.8680   11.5675 H           1 MFU       0.0255
     19 H7        -37.9203   19.3017   11.7399 H           1 MFU       0.0255
     20 H8        -38.6522   19.2034   10.1271 H           1 MFU       0.0255
     21 H9        -39.7190   25.3968    9.5116 H           1 MFU       0.2101
     22 H10       -37.8213   25.1794   10.7551 H           1 MFU       0.2100
     23 H11       -36.8156   21.1596    9.5273 H           1 MFU       0.2100
     24 H12       -42.6610   23.8211   13.2224 H           1 MFU       0.0525
     25 H13       -43.2872   23.6780   11.5760 H           1 MFU       0.0525
     26 H14       -41.9690   24.8268   11.9404 H           1 MFU       0.0525
@<TRIPOS>BOND
     1     1     2   1
     2     1     7   1
     3     1    11   1
     4     2     3   1
     5     2     8   1
     6     3     4   1
     7     3     9   1
     8     4     5   1
     9     4    10   1
    10     5     6   1
    11     5    11   1
    12     7    12   1
    13     1    13   1
    14     2    14   1
    15     3    15   1
    16     4    16   1
    17     5    17   1
    18     6    18   1
    19     6    19   1
    20     6    20   1
    21     8    21   1
    22     9    22   1
    23    10    23   1
    24    12    24   1
    25    12    25   1
    26    12    26   1
@<TRIPOS>SUBSTRUCTURE
     1  MFU      1

