@<TRIPOS>MOLECULE
2jdu_ligand_016
    26    26
SMALL
GAST_HUCK
****
This file was generated by PARSER (from files_GN.cpp)

@<TRIPOS>ATOM
      1 C1        -38.5368   22.0965   13.2244 C.3         1 MFU       0.1875
      2 C2        -38.6792   20.6388   13.7480 C.3         1 MFU       0.1341
      3 C3        -39.8919   19.9329   13.0760 C.3         1 MFU       0.1140
      4 C4        -39.8271   20.0359   11.5248 C.3         1 MFU       0.1095
      5 C5        -39.6000   21.5166   11.0925 C.3         1 MFU       0.0873
      6 C6        -39.3621   21.6836    9.5728 C.3         1 MFU      -0.0361
      7 O1        -39.6207   22.9669   13.6384 O.3         1 MFU      -0.3520
      8 O2        -38.8058   20.6240   15.1681 O.3         1 MFU      -0.3841
      9 O3        -39.9533   18.5594   13.4654 O.3         1 MFU      -0.3864
     10 O4        -38.7946   19.1781   11.0313 O.3         1 MFU      -0.3866
     11 O5        -38.4670   22.0933   11.7795 O.3         1 MFU      -0.3431
     12 CM        -39.4385   23.7232   14.8484 C.3         1 MFU       0.0395
     13 H1        -37.5779   22.4997   13.5625 H           1 MFU       0.0937
     14 H2        -37.7626   20.0946   13.4940 H           1 MFU       0.0671
     15 H3        -40.8164   20.4086   13.4217 H           1 MFU       0.0648
     16 H4        -40.7768   19.6836   11.1101 H           1 MFU       0.0646
     17 H5        -40.5007   22.0913   11.3371 H           1 MFU       0.0621
     18 H6        -39.3138   22.7451    9.3192 H           1 MFU       0.0255
     19 H7        -40.1764   21.2278    9.0067 H           1 MFU       0.0255
     20 H8        -38.4189   21.2217    9.2747 H           1 MFU       0.0255
     21 H9        -38.8288   19.6788   15.4314 H           1 MFU       0.2101
     22 H10       -39.9560   18.5448   14.4489 H           1 MFU       0.2100
     23 H11       -38.8641   19.1959   10.0502 H           1 MFU       0.2100
     24 H12       -40.3358   24.3176   15.0221 H           1 MFU       0.0525
     25 H13       -38.5873   24.4025   14.7509 H           1 MFU       0.0525
     26 H14       -39.2884   23.0751   15.7122 H           1 MFU       0.0525
@<TRIPOS>BOND
     1     1     2   1
     2     1     7   1
     3     1    11   1
     4     2     3   1
     5     2     8   1
     6     3     4   1
     7     3     9   1
     8     4     5   1
     9     4    10   1
    10     5     6   1
    11     5    11   1
    12     7    12   1
    13     1    13   1
    14     2    14   1
    15     3    15   1
    16     4    16   1
    17     5    17   1
    18     6    18   1
    19     6    19   1
    20     6    20   1
    21     8    21   1
    22     9    22   1
    23    10    23   1
    24    12    24   1
    25    12    25   1
    26    12    26   1
@<TRIPOS>SUBSTRUCTURE
     1  MFU      1

