@<TRIPOS>MOLECULE
2jdu_ligand_017
    26    26
SMALL
GAST_HUCK
****
This file was generated by PARSER (from files_GN.cpp)

@<TRIPOS>ATOM
      1 C1        -40.2765   21.8580   11.2342 C.3         1 MFU       0.1875
      2 C2        -38.7772   21.4702   11.1186 C.3         1 MFU       0.1341
      3 C3        -37.9967   22.5560   10.3238 C.3         1 MFU       0.1140
      4 C4        -38.2244   23.9635   10.9406 C.3         1 MFU       0.1095
      5 C5        -39.7516   24.2432   11.0955 C.3         1 MFU       0.0873
      6 C6        -40.0509   25.5833   11.8053 C.3         1 MFU      -0.0361
      7 O1        -40.9024   21.8045    9.9336 O.3         1 MFU      -0.3520
      8 O2        -38.6265   20.1727   10.5392 O.3         1 MFU      -0.3841
      9 O3        -36.5988   22.2721   10.3001 O.3         1 MFU      -0.3864
     10 O4        -37.5348   24.0924   12.1918 O.3         1 MFU      -0.3866
     11 O5        -40.3970   23.1735   11.8285 O.3         1 MFU      -0.3431
     12 CM        -42.3398   21.8256    9.9275 C.3         1 MFU       0.0395
     13 H1        -40.7571   21.1366   11.9062 H           1 MFU       0.0937
     14 H2        -38.3532   21.4118   12.1306 H           1 MFU       0.0671
     15 H3        -38.3536   22.5637    9.2841 H           1 MFU       0.0648
     16 H4        -37.7953   24.7116   10.2654 H           1 MFU       0.0646
     17 H5        -40.1949   24.3121   10.0968 H           1 MFU       0.0621
     18 H6        -41.1255   25.7741   11.7991 H           1 MFU       0.0255
     19 H7        -39.5492   26.4061   11.2894 H           1 MFU       0.0255
     20 H8        -39.7106   25.5580   12.8423 H           1 MFU       0.0255
     21 H9        -38.7876   20.2612    9.5790 H           1 MFU       0.2101
     22 H10       -36.4559   21.6004    9.5984 H           1 MFU       0.2100
     23 H11       -38.0006   23.4999   12.8200 H           1 MFU       0.2100
     24 H12       -42.6796   22.0508    8.9142 H           1 MFU       0.0525
     25 H13       -42.7480   22.5885   10.5973 H           1 MFU       0.0525
     26 H14       -42.7176   20.8394   10.2103 H           1 MFU       0.0525
@<TRIPOS>BOND
     1     1     2   1
     2     1     7   1
     3     1    11   1
     4     2     3   1
     5     2     8   1
     6     3     4   1
     7     3     9   1
     8     4     5   1
     9     4    10   1
    10     5     6   1
    11     5    11   1
    12     7    12   1
    13     1    13   1
    14     2    14   1
    15     3    15   1
    16     4    16   1
    17     5    17   1
    18     6    18   1
    19     6    19   1
    20     6    20   1
    21     8    21   1
    22     9    22   1
    23    10    23   1
    24    12    24   1
    25    12    25   1
    26    12    26   1
@<TRIPOS>SUBSTRUCTURE
     1  MFU      1

