@<TRIPOS>MOLECULE
2jdu_ligand_007
    26    26
SMALL
GAST_HUCK
****
This file was generated by PARSER (from files_GN.cpp)

@<TRIPOS>ATOM
      1 C1        -40.7797   22.0451   11.7406 C.3         1 MFU       0.1875
      2 C2        -40.4919   20.7250   10.9713 C.3         1 MFU       0.1341
      3 C3        -39.1836   20.0566   11.4753 C.3         1 MFU       0.1140
      4 C4        -39.1692   19.9339   13.0274 C.3         1 MFU       0.1095
      5 C5        -39.4694   21.3188   13.6699 C.3         1 MFU       0.0873
      6 C6        -39.5418   21.2745   15.2155 C.3         1 MFU      -0.0361
      7 O1        -39.8652   23.0778   11.3032 O.3         1 MFU      -0.3520
      8 O2        -40.4338   21.0044    9.5706 O.3         1 MFU      -0.3841
      9 O3        -39.0341   18.7638   10.8880 O.3         1 MFU      -0.3864
     10 O4        -40.1428   18.9688   13.4458 O.3         1 MFU      -0.3866
     11 O5        -40.7237   21.8337   13.1727 O.3         1 MFU      -0.3431
     12 CM        -40.0540   24.3622   11.9148 C.3         1 MFU       0.0395
     13 H1        -41.8025   22.3465   11.4913 H           1 MFU       0.0937
     14 H2        -41.3259   20.0373   11.1294 H           1 MFU       0.0671
     15 H3        -38.3295   20.6610   11.1628 H           1 MFU       0.0648
     16 H4        -38.1785   19.5898   13.3414 H           1 MFU       0.0646
     17 H5        -38.6568   22.0055   13.4111 H           1 MFU       0.0621
     18 H6        -39.6775   22.2826   15.6077 H           1 MFU       0.0255
     19 H7        -38.6194   20.8654   15.6282 H           1 MFU       0.0255
     20 H8        -40.3816   20.6611   15.5516 H           1 MFU       0.0255
     21 H9        -39.8831   20.3002    9.1715 H           1 MFU       0.2101
     22 H10       -38.7833   18.9142    9.9483 H           1 MFU       0.2100
     23 H11       -39.8384   18.6441   14.3212 H           1 MFU       0.2100
     24 H12       -39.3498   25.0638   11.4711 H           1 MFU       0.0525
     25 H13       -39.8664   24.3133   12.9903 H           1 MFU       0.0525
     26 H14       -41.0625   24.7394   11.7366 H           1 MFU       0.0525
@<TRIPOS>BOND
     1     1     2   1
     2     1     7   1
     3     1    11   1
     4     2     3   1
     5     2     8   1
     6     3     4   1
     7     3     9   1
     8     4     5   1
     9     4    10   1
    10     5     6   1
    11     5    11   1
    12     7    12   1
    13     1    13   1
    14     2    14   1
    15     3    15   1
    16     4    16   1
    17     5    17   1
    18     6    18   1
    19     6    19   1
    20     6    20   1
    21     8    21   1
    22     9    22   1
    23    10    23   1
    24    12    24   1
    25    12    25   1
    26    12    26   1
@<TRIPOS>SUBSTRUCTURE
     1  MFU      1

