@<TRIPOS>MOLECULE
2jdu_ligand_022
    26    26
SMALL
GAST_HUCK
****
This file was generated by PARSER (from files_GN.cpp)

@<TRIPOS>ATOM
      1 C1        -36.0441   19.4078   17.8635 C.3         1 MFU       0.1875
      2 C2        -36.1609   20.6006   16.8726 C.3         1 MFU       0.1341
      3 C3        -36.9463   21.7797   17.5100 C.3         1 MFU       0.1140
      4 C4        -38.3024   21.2979   18.1004 C.3         1 MFU       0.1095
      5 C5        -38.1614   20.0112   18.9740 C.3         1 MFU       0.0873
      6 C6        -37.6716   20.2381   20.4276 C.3         1 MFU      -0.0361
      7 O1        -35.4498   18.2477   17.2403 O.3         1 MFU      -0.3520
      8 O2        -36.8196   20.1728   15.6802 O.3         1 MFU      -0.3841
      9 O3        -36.1413   22.4232   18.4996 O.3         1 MFU      -0.3864
     10 O4        -38.9535   22.3419   18.8254 O.3         1 MFU      -0.3866
     11 O5        -37.3651   19.0135   18.2949 O.3         1 MFU      -0.3431
     12 CM        -34.0126   18.1709   17.2733 C.3         1 MFU       0.0395
     13 H1        -35.4577   19.7047   18.7391 H           1 MFU       0.0937
     14 H2        -35.1605   20.9393   16.5949 H           1 MFU       0.0671
     15 H3        -37.1448   22.5250   16.7340 H           1 MFU       0.0648
     16 H4        -38.9543   21.0483   17.2572 H           1 MFU       0.0646
     17 H5        -39.1607   19.5745   19.0598 H           1 MFU       0.0621
     18 H6        -37.5646   19.2758   20.9325 H           1 MFU       0.0255
     19 H7        -38.3929   20.8388   20.9853 H           1 MFU       0.0255
     20 H8        -36.7099   20.7480   20.4490 H           1 MFU       0.0255
     21 H9        -36.5907   20.8475   15.0082 H           1 MFU       0.2101
     22 H10       -36.6424   23.2238   18.7641 H           1 MFU       0.2100
     23 H11       -39.1402   23.0426   18.1652 H           1 MFU       0.2100
     24 H12       -33.7014   17.2536   16.7746 H           1 MFU       0.0525
     25 H13       -33.6499   18.1341   18.3033 H           1 MFU       0.0525
     26 H14       -33.5557   19.0137   16.7538 H           1 MFU       0.0525
@<TRIPOS>BOND
     1     1     2   1
     2     1     7   1
     3     1    11   1
     4     2     3   1
     5     2     8   1
     6     3     4   1
     7     3     9   1
     8     4     5   1
     9     4    10   1
    10     5     6   1
    11     5    11   1
    12     7    12   1
    13     1    13   1
    14     2    14   1
    15     3    15   1
    16     4    16   1
    17     5    17   1
    18     6    18   1
    19     6    19   1
    20     6    20   1
    21     8    21   1
    22     9    22   1
    23    10    23   1
    24    12    24   1
    25    12    25   1
    26    12    26   1
@<TRIPOS>SUBSTRUCTURE
     1  MFU      1

