@<TRIPOS>MOLECULE
2jdu_ligand_000
    26    26
SMALL
GAST_HUCK
****
This file was generated by PARSER (from files_GN.cpp)

@<TRIPOS>ATOM
      1 C1        -38.8590   23.1087   10.7114 C.3         1 MFU       0.1875
      2 C2        -38.1427   21.9426    9.9718 C.3         1 MFU       0.1341
      3 C3        -38.4820   20.5598   10.5978 C.3         1 MFU       0.1140
      4 C4        -38.3194   20.5735   12.1417 C.3         1 MFU       0.1095
      5 C5        -39.0218   21.8012   12.7993 C.3         1 MFU       0.0873
      6 C6        -40.5655   21.6891   12.9657 C.3         1 MFU      -0.0361
      7 O1        -38.3521   24.3473   10.1709 O.3         1 MFU      -0.3520
      8 O2        -36.7318   22.1745   10.0152 O.3         1 MFU      -0.3841
      9 O3        -39.8096   20.1570   10.2573 O.3         1 MFU      -0.3864
     10 O4        -38.7626   19.3369   12.7003 O.3         1 MFU      -0.3866
     11 O5        -38.6292   23.0289   12.1364 O.3         1 MFU      -0.3431
     12 CM        -38.9085   25.5540   10.7158 C.3         1 MFU       0.0395
     13 H1        -39.9272   23.0543   10.4930 H           1 MFU       0.0937
     14 H2        -38.4501   21.9410    8.9224 H           1 MFU       0.0671
     15 H3        -37.8038   19.8038   10.1830 H           1 MFU       0.0648
     16 H4        -37.2525   20.6496   12.3653 H           1 MFU       0.0646
     17 H5        -38.6279   21.8790   13.8162 H           1 MFU       0.0621
     18 H6        -40.9424   22.5715   13.4877 H           1 MFU       0.0255
     19 H7        -40.8255   20.8082   13.5573 H           1 MFU       0.0255
     20 H8        -41.0772   21.6152   12.0054 H           1 MFU       0.0255
     21 H9        -36.3305   21.4961    9.4337 H           1 MFU       0.2101
     22 H10       -39.7427   19.8449    9.3316 H           1 MFU       0.2100
     23 H11       -38.2561   18.6431   12.2237 H           1 MFU       0.2100
     24 H12       -38.6721   26.3674   10.0419 H           1 MFU       0.0525
     25 H13       -38.4665   25.7660   11.6923 H           1 MFU       0.0525
     26 H14       -39.9930   25.4956   10.8109 H           1 MFU       0.0525
@<TRIPOS>BOND
     1     1     2   1
     2     1     7   1
     3     1    11   1
     4     2     3   1
     5     2     8   1
     6     3     4   1
     7     3     9   1
     8     4     5   1
     9     4    10   1
    10     5     6   1
    11     5    11   1
    12     7    12   1
    13     1    13   1
    14     2    14   1
    15     3    15   1
    16     4    16   1
    17     5    17   1
    18     6    18   1
    19     6    19   1
    20     6    20   1
    21     8    21   1
    22     9    22   1
    23    10    23   1
    24    12    24   1
    25    12    25   1
    26    12    26   1
@<TRIPOS>SUBSTRUCTURE
     1  MFU      1

