@<TRIPOS>MOLECULE
2jdu_ligand_014
    26    26
SMALL
GAST_HUCK
****
This file was generated by PARSER (from files_GN.cpp)

@<TRIPOS>ATOM
      1 C1        -39.4527   22.5029    9.9562 C.3         1 MFU       0.1875
      2 C2        -40.2196   21.1629    9.7821 C.3         1 MFU       0.1341
      3 C3        -41.6387   21.2511   10.4026 C.3         1 MFU       0.1140
      4 C4        -42.4157   22.4776    9.8502 C.3         1 MFU       0.1095
      5 C5        -41.5618   23.7689   10.0267 C.3         1 MFU       0.0873
      6 C6        -42.2298   25.0188    9.3996 C.3         1 MFU      -0.0361
      7 O1        -39.0852   22.7491   11.3331 O.3         1 MFU      -0.3520
      8 O2        -39.5355   20.0689   10.3913 O.3         1 MFU      -0.3841
      9 O3        -42.3534   20.0440   10.1382 O.3         1 MFU      -0.3864
     10 O4        -42.7517   22.2814    8.4751 O.3         1 MFU      -0.3866
     11 O5        -40.2456   23.6013    9.4543 O.3         1 MFU      -0.3431
     12 CM        -37.8065   22.2180   11.7370 C.3         1 MFU       0.0395
     13 H1        -38.5662   22.4858    9.3138 H           1 MFU       0.0937
     14 H2        -40.3007   20.9583    8.7105 H           1 MFU       0.0671
     15 H3        -41.5524   21.3488   11.4904 H           1 MFU       0.0648
     16 H4        -43.3520   22.5914   10.4003 H           1 MFU       0.0646
     17 H5        -41.4538   23.9744   11.0948 H           1 MFU       0.0621
     18 H6        -41.6303   25.9074    9.6094 H           1 MFU       0.0255
     19 H7        -43.2271   25.1725    9.8195 H           1 MFU       0.0255
     20 H8        -42.3186   24.9125    8.3162 H           1 MFU       0.0255
     21 H9        -39.2654   19.4786    9.6550 H           1 MFU       0.2101
     22 H10       -41.7762   19.3162   10.4590 H           1 MFU       0.2100
     23 H11       -43.5239   21.6726    8.4703 H           1 MFU       0.2100
     24 H12       -37.6693   22.3939   12.8024 H           1 MFU       0.0525
     25 H13       -37.0095   22.7166   11.1875 H           1 MFU       0.0525
     26 H14       -37.7059   21.1469   11.5754 H           1 MFU       0.0525
@<TRIPOS>BOND
     1     1     2   1
     2     1     7   1
     3     1    11   1
     4     2     3   1
     5     2     8   1
     6     3     4   1
     7     3     9   1
     8     4     5   1
     9     4    10   1
    10     5     6   1
    11     5    11   1
    12     7    12   1
    13     1    13   1
    14     2    14   1
    15     3    15   1
    16     4    16   1
    17     5    17   1
    18     6    18   1
    19     6    19   1
    20     6    20   1
    21     8    21   1
    22     9    22   1
    23    10    23   1
    24    12    24   1
    25    12    25   1
    26    12    26   1
@<TRIPOS>SUBSTRUCTURE
     1  MFU      1

