@<TRIPOS>MOLECULE
2jdu_ligand_021
    26    26
SMALL
GAST_HUCK
****
This file was generated by PARSER (from files_GN.cpp)

@<TRIPOS>ATOM
      1 C1        -39.5164   23.9263   12.0696 C.3         1 MFU       0.1875
      2 C2        -38.4485   22.9039   12.5551 C.3         1 MFU       0.1341
      3 C3        -38.5010   21.6041   11.7066 C.3         1 MFU       0.1140
      4 C4        -38.4178   21.9200   10.1853 C.3         1 MFU       0.1095
      5 C5        -39.5017   22.9811    9.8142 C.3         1 MFU       0.0873
      6 C6        -39.4410   23.4207    8.3338 C.3         1 MFU      -0.0361
      7 O1        -40.8378   23.4628   12.4236 O.3         1 MFU      -0.3520
      8 O2        -38.6265   22.6181   13.9420 O.3         1 MFU      -0.3841
      9 O3        -37.4586   20.7089   12.0861 O.3         1 MFU      -0.3864
     10 O4        -37.1112   22.3922    9.8389 O.3         1 MFU      -0.3866
     11 O5        -39.3755   24.1563   10.6481 O.3         1 MFU      -0.3431
     12 CM        -41.9112   24.3688   12.1153 C.3         1 MFU       0.0395
     13 H1        -39.3225   24.8749   12.5784 H           1 MFU       0.0937
     14 H2        -37.4569   23.3571   12.4434 H           1 MFU       0.0671
     15 H3        -39.4470   21.0926   11.9044 H           1 MFU       0.0648
     16 H4        -38.6083   21.0064    9.6163 H           1 MFU       0.0646
     17 H5        -40.4869   22.5338    9.9695 H           1 MFU       0.0621
     18 H6        -40.2770   24.0889    8.1126 H           1 MFU       0.0255
     19 H7        -39.5126   22.5523    7.6759 H           1 MFU       0.0255
     20 H8        -38.5105   23.9492    8.1250 H           1 MFU       0.0255
     21 H9        -39.5151   22.2092   14.0143 H           1 MFU       0.2101
     22 H10       -37.5913   20.5402   13.0412 H           1 MFU       0.2100
     23 H11       -36.5466   21.5936    9.7392 H           1 MFU       0.2100
     24 H12       -42.8470   23.9068   12.4261 H           1 MFU       0.0525
     25 H13       -41.9649   24.5694   11.0421 H           1 MFU       0.0525
     26 H14       -41.7973   25.3094   12.6564 H           1 MFU       0.0525
@<TRIPOS>BOND
     1     1     2   1
     2     1     7   1
     3     1    11   1
     4     2     3   1
     5     2     8   1
     6     3     4   1
     7     3     9   1
     8     4     5   1
     9     4    10   1
    10     5     6   1
    11     5    11   1
    12     7    12   1
    13     1    13   1
    14     2    14   1
    15     3    15   1
    16     4    16   1
    17     5    17   1
    18     6    18   1
    19     6    19   1
    20     6    20   1
    21     8    21   1
    22     9    22   1
    23    10    23   1
    24    12    24   1
    25    12    25   1
    26    12    26   1
@<TRIPOS>SUBSTRUCTURE
     1  MFU      1

