@<TRIPOS>MOLECULE
2jdu_ligand_006
    26    26
SMALL
GAST_HUCK
****
This file was generated by PARSER (from files_GN.cpp)

@<TRIPOS>ATOM
      1 C1        -38.7019   20.8231   13.5330 C.3         1 MFU       0.1875
      2 C2        -39.5861   19.7619   12.8100 C.3         1 MFU       0.1341
      3 C3        -39.5825   19.9726   11.2768 C.3         1 MFU       0.1140
      4 C4        -39.9085   21.4438   10.9044 C.3         1 MFU       0.1095
      5 C5        -39.0938   22.4823   11.7422 C.3         1 MFU       0.0873
      6 C6        -37.6565   22.7606   11.2341 C.3         1 MFU      -0.0361
      7 O1        -38.9061   20.6825   14.9541 O.3         1 MFU      -0.3520
      8 O2        -40.9355   19.7911   13.2894 O.3         1 MFU      -0.3841
      9 O3        -38.3109   19.5798   10.7595 O.3         1 MFU      -0.3864
     10 O4        -39.8133   21.6847    9.4918 O.3         1 MFU      -0.3866
     11 O5        -39.1194   22.1535   13.1503 O.3         1 MFU      -0.3431
     12 CM        -37.7650   20.3290   15.7535 C.3         1 MFU       0.0395
     13 H1        -37.6571   20.6806   13.2461 H           1 MFU       0.0937
     14 H2        -39.2012   18.7614   13.0349 H           1 MFU       0.0671
     15 H3        -40.3368   19.3180   10.8366 H           1 MFU       0.0648
     16 H4        -40.9643   21.6044   11.1544 H           1 MFU       0.0646
     17 H5        -39.6156   23.4318   11.6517 H           1 MFU       0.0621
     18 H6        -37.1424   23.4491   11.9160 H           1 MFU       0.0255
     19 H7        -37.6926   23.2338   10.2462 H           1 MFU       0.0255
     20 H8        -37.0646   21.8461   11.1543 H           1 MFU       0.0255
     21 H9        -41.0288   20.6497   13.7759 H           1 MFU       0.2101
     22 H10       -38.4996   19.2253    9.8547 H           1 MFU       0.2100
     23 H11       -39.3063   20.9292    9.1002 H           1 MFU       0.2100
     24 H12       -38.0712   20.2335   16.7937 H           1 MFU       0.0525
     25 H13       -37.0061   21.1114   15.6867 H           1 MFU       0.0525
     26 H14       -37.3391   19.3766   15.4300 H           1 MFU       0.0525
@<TRIPOS>BOND
     1     1     2   1
     2     1     7   1
     3     1    11   1
     4     2     3   1
     5     2     8   1
     6     3     4   1
     7     3     9   1
     8     4     5   1
     9     4    10   1
    10     5     6   1
    11     5    11   1
    12     7    12   1
    13     1    13   1
    14     2    14   1
    15     3    15   1
    16     4    16   1
    17     5    17   1
    18     6    18   1
    19     6    19   1
    20     6    20   1
    21     8    21   1
    22     9    22   1
    23    10    23   1
    24    12    24   1
    25    12    25   1
    26    12    26   1
@<TRIPOS>SUBSTRUCTURE
     1  MFU      1

