@<TRIPOS>MOLECULE
2jdu_ligand_011
    26    26
SMALL
GAST_HUCK
****
This file was generated by PARSER (from files_GN.cpp)

@<TRIPOS>ATOM
      1 C1        -39.9190   22.3279   12.6771 C.3         1 MFU       0.1875
      2 C2        -40.3687   22.1855   11.1996 C.3         1 MFU       0.1341
      3 C3        -40.3682   20.6951   10.7626 C.3         1 MFU       0.1140
      4 C4        -39.0043   20.0235   11.0797 C.3         1 MFU       0.1095
      5 C5        -38.5562   20.2673   12.5530 C.3         1 MFU       0.0873
      6 C6        -39.2381   19.3810   13.6246 C.3         1 MFU      -0.0361
      7 O1        -39.8139   23.7300   12.9929 O.3         1 MFU      -0.3520
      8 O2        -39.5022   22.9231   10.3401 O.3         1 MFU      -0.3841
      9 O3        -41.4211   19.9902   11.4128 O.3         1 MFU      -0.3864
     10 O4        -39.0423   18.6338   10.7563 O.3         1 MFU      -0.3866
     11 O5        -38.6442   21.6728   12.8861 O.3         1 MFU      -0.3431
     12 CM        -39.5446   24.0367   14.3693 C.3         1 MFU       0.0395
     13 H1        -40.6850   21.8850   13.3168 H           1 MFU       0.0937
     14 H2        -41.3771   22.5941   11.0868 H           1 MFU       0.0671
     15 H3        -40.5528   20.6326    9.6879 H           1 MFU       0.0648
     16 H4        -38.2498   20.4700   10.4288 H           1 MFU       0.0646
     17 H5        -37.4927   20.0181   12.6006 H           1 MFU       0.0621
     18 H6        -38.7698   19.5615   14.6013 H           1 MFU       0.0255
     19 H7        -39.1236   18.3135   13.3776 H           1 MFU       0.0255
     20 H8        -40.3057   19.6038   13.7069 H           1 MFU       0.0255
     21 H9        -39.5959   23.8580   10.6164 H           1 MFU       0.2101
     22 H10       -42.2572   20.4053   11.1199 H           1 MFU       0.2100
     23 H11       -39.1774   18.6000    9.7853 H           1 MFU       0.2100
     24 H12       -39.5078   25.1205   14.4795 H           1 MFU       0.0525
     25 H13       -38.5819   23.6253   14.6833 H           1 MFU       0.0525
     26 H14       -40.3359   23.6523   15.0171 H           1 MFU       0.0525
@<TRIPOS>BOND
     1     1     2   1
     2     1     7   1
     3     1    11   1
     4     2     3   1
     5     2     8   1
     6     3     4   1
     7     3     9   1
     8     4     5   1
     9     4    10   1
    10     5     6   1
    11     5    11   1
    12     7    12   1
    13     1    13   1
    14     2    14   1
    15     3    15   1
    16     4    16   1
    17     5    17   1
    18     6    18   1
    19     6    19   1
    20     6    20   1
    21     8    21   1
    22     9    22   1
    23    10    23   1
    24    12    24   1
    25    12    25   1
    26    12    26   1
@<TRIPOS>SUBSTRUCTURE
     1  MFU      1

