@<TRIPOS>MOLECULE
2jdu_ligand_020
    26    26
SMALL
GAST_HUCK
****
This file was generated by PARSER (from files_GN.cpp)

@<TRIPOS>ATOM
      1 C1        -39.2233   21.1954   10.9435 C.3         1 MFU       0.1875
      2 C2        -37.9315   21.9389   11.3737 C.3         1 MFU       0.1341
      3 C3        -38.2880   23.1049   12.3315 C.3         1 MFU       0.1140
      4 C4        -39.1125   22.5850   13.5536 C.3         1 MFU       0.1095
      5 C5        -40.3553   21.7970   13.0458 C.3         1 MFU       0.0873
      6 C6        -41.1881   21.1353   14.1711 C.3         1 MFU      -0.0361
      7 O1        -39.9999   22.0172   10.0560 O.3         1 MFU      -0.3520
      8 O2        -37.2025   22.4404   10.2524 O.3         1 MFU      -0.3841
      9 O3        -37.1091   23.7716   12.7824 O.3         1 MFU      -0.3864
     10 O4        -38.3059   21.7379   14.3805 O.3         1 MFU      -0.3866
     11 O5        -39.9545   20.7630   12.1144 O.3         1 MFU      -0.3431
     12 CM        -41.4260   21.7827   10.0183 C.3         1 MFU       0.0395
     13 H1        -38.9285   20.2974   10.3979 H           1 MFU       0.0937
     14 H2        -37.2794   21.2390   11.9007 H           1 MFU       0.0671
     15 H3        -38.8852   23.8462   11.7910 H           1 MFU       0.0648
     16 H4        -39.4455   23.4390   14.1496 H           1 MFU       0.0646
     17 H5        -41.0237   22.4977   12.5307 H           1 MFU       0.0621
     18 H6        -42.0643   20.6376   13.7440 H           1 MFU       0.0255
     19 H7        -41.5284   21.8880   14.8864 H           1 MFU       0.0255
     20 H8        -40.5887   20.3891   14.6978 H           1 MFU       0.0255
     21 H9        -36.7607   21.6676    9.8382 H           1 MFU       0.2101
     22 H10       -37.4263   24.5862   13.2382 H           1 MFU       0.2100
     23 H11       -37.4416   22.1981   14.4566 H           1 MFU       0.2100
     24 H12       -41.8386   22.3220    9.1592 H           1 MFU       0.0525
     25 H13       -41.9056   22.1682   10.9172 H           1 MFU       0.0525
     26 H14       -41.6493   20.7085    9.9288 H           1 MFU       0.0525
@<TRIPOS>BOND
     1     1     2   1
     2     1     7   1
     3     1    11   1
     4     2     3   1
     5     2     8   1
     6     3     4   1
     7     3     9   1
     8     4     5   1
     9     4    10   1
    10     5     6   1
    11     5    11   1
    12     7    12   1
    13     1    13   1
    14     2    14   1
    15     3    15   1
    16     4    16   1
    17     5    17   1
    18     6    18   1
    19     6    19   1
    20     6    20   1
    21     8    21   1
    22     9    22   1
    23    10    23   1
    24    12    24   1
    25    12    25   1
    26    12    26   1
@<TRIPOS>SUBSTRUCTURE
     1  MFU      1

