@<TRIPOS>MOLECULE
2jdy_ligand_016
    27    27
SMALL
GAST_HUCK
****
This file was generated by PARSER (from files_GN.cpp)

@<TRIPOS>ATOM
      1 C1         -7.9181  -18.5331   -3.5678 C.3         1 MMA       0.1876
      2 C2         -8.7545  -17.2270   -3.4760 C.3         1 MMA       0.1341
      3 C3         -7.8471  -16.0128   -3.1430 C.3         1 MMA       0.1141
      4 C4         -6.6641  -15.9101   -4.1354 C.3         1 MMA       0.1119
      5 C5         -5.9249  -17.2739   -4.3298 C.3         1 MMA       0.1130
      6 C6         -4.8843  -17.5969   -3.2270 C.3         1 MMA       0.0730
      7 C7         -9.2151  -20.5532   -3.0504 C.3         1 MMA       0.0395
      8 O1         -8.7180  -19.6323   -4.0495 O.3         1 MMA      -0.3520
      9 O2         -9.7744  -17.3223   -2.4824 O.3         1 MMA      -0.3841
     10 O3         -7.4215  -16.0971   -1.7753 O.3         1 MMA      -0.3864
     11 O4         -7.1493  -15.4746   -5.4002 O.3         1 MMA      -0.3865
     12 O5         -6.8567  -18.3610   -4.5361 O.3         1 MMA      -0.3405
     13 O6         -3.7612  -18.3136   -3.7699 O.3         1 MMA      -0.3924
     14 H1         -7.4742  -18.7773   -2.5972 H           1 MMA       0.0937
     15 H2         -9.2448  -17.0507   -4.4345 H           1 MMA       0.0671
     16 H3         -8.4559  -15.1097   -3.2218 H           1 MMA       0.0648
     17 H4         -5.9622  -15.1559   -3.7831 H           1 MMA       0.0647
     18 H5         -5.3534  -17.1956   -5.2546 H           1 MMA       0.0647
     19 H6         -5.3229  -18.2044   -2.4195 H           1 MMA       0.0584
     20 H7         -4.4937  -16.6671   -2.7812 H           1 MMA       0.0584
     21 H8         -9.8623  -21.2797   -3.5457 H           1 MMA       0.0525
     22 H9         -9.7965  -20.0439   -2.2829 H           1 MMA       0.0525
     23 H10        -8.3877  -21.0918   -2.5838 H           1 MMA       0.0525
     24 H11       -10.4692  -17.9066   -2.8574 H           1 MMA       0.2101
     25 H12        -7.4605  -15.1753   -1.4394 H           1 MMA       0.2100
     26 H13        -7.3048  -14.5199   -5.3021 H           1 MMA       0.2100
     27 H14        -4.1284  -19.1960   -4.0112 H           1 MMA       0.2095
@<TRIPOS>BOND
     1     1     2   1
     2     1     8   1
     3     1    12   1
     4     2     3   1
     5     2     9   1
     6     3     4   1
     7     3    10   1
     8     4     5   1
     9     4    11   1
    10     5     6   1
    11     5    12   1
    12     6    13   1
    13     8     7   1
    14     1    14   1
    15     2    15   1
    16     3    16   1
    17     4    17   1
    18     5    18   1
    19     6    19   1
    20     6    20   1
    21     7    21   1
    22     7    22   1
    23     7    23   1
    24     9    24   1
    25    10    25   1
    26    11    26   1
    27    13    27   1
@<TRIPOS>SUBSTRUCTURE
     1  MMA      1

