@<TRIPOS>MOLECULE
2jdy_ligand_025
    27    27
SMALL
GAST_HUCK
****
This file was generated by PARSER (from files_GN.cpp)

@<TRIPOS>ATOM
      1 C1         -6.7437  -18.0499   -5.2252 C.3         1 MMA       0.1876
      2 C2         -6.8069  -16.5146   -5.4590 C.3         1 MMA       0.1341
      3 C3         -8.2738  -16.0022   -5.4225 C.3         1 MMA       0.1141
      4 C4         -8.9840  -16.4681   -4.1234 C.3         1 MMA       0.1119
      5 C5         -8.8182  -17.9992   -3.8696 C.3         1 MMA       0.1130
      6 C6         -9.7699  -18.9049   -4.6959 C.3         1 MMA       0.0730
      7 C7         -4.6591  -18.9512   -6.1670 C.3         1 MMA       0.0395
      8 O1         -5.3882  -18.4923   -5.0121 O.3         1 MMA      -0.3520
      9 O2         -6.2084  -16.1479   -6.6984 O.3         1 MMA      -0.3841
     10 O3         -9.0013  -16.4243   -6.5755 O.3         1 MMA      -0.3864
     11 O4         -8.4199  -15.7715   -3.0107 O.3         1 MMA      -0.3865
     12 O5         -7.4319  -18.3925   -4.0007 O.3         1 MMA      -0.3405
     13 O6         -9.5812  -20.2780   -4.3597 O.3         1 MMA      -0.3924
     14 H1         -7.2054  -18.5868   -6.0602 H           1 MMA       0.0937
     15 H2         -6.2403  -16.0194   -4.6654 H           1 MMA       0.0671
     16 H3         -8.2673  -14.9092   -5.4483 H           1 MMA       0.0648
     17 H4        -10.0418  -16.2081   -4.1782 H           1 MMA       0.0647
     18 H5         -9.0758  -18.1794   -2.8228 H           1 MMA       0.0647
     19 H6         -9.5877  -18.7951   -5.7655 H           1 MMA       0.0584
     20 H7        -10.8087  -18.6403   -4.4879 H           1 MMA       0.0584
     21 H8         -3.6563  -19.2345   -5.8416 H           1 MMA       0.0525
     22 H9         -4.5662  -18.1725   -6.9303 H           1 MMA       0.0525
     23 H10        -5.1383  -19.8336   -6.6064 H           1 MMA       0.0525
     24 H11        -6.2073  -15.1654   -6.7048 H           1 MMA       0.2101
     25 H12        -8.5547  -15.9995   -7.3367 H           1 MMA       0.2100
     26 H13        -8.3971  -14.8222   -3.2722 H           1 MMA       0.2100
     27 H14        -9.8351  -20.3522   -3.4161 H           1 MMA       0.2095
@<TRIPOS>BOND
     1     1     2   1
     2     1     8   1
     3     1    12   1
     4     2     3   1
     5     2     9   1
     6     3     4   1
     7     3    10   1
     8     4     5   1
     9     4    11   1
    10     5     6   1
    11     5    12   1
    12     6    13   1
    13     8     7   1
    14     1    14   1
    15     2    15   1
    16     3    16   1
    17     4    17   1
    18     5    18   1
    19     6    19   1
    20     6    20   1
    21     7    21   1
    22     7    22   1
    23     7    23   1
    24     9    24   1
    25    10    25   1
    26    11    26   1
    27    13    27   1
@<TRIPOS>SUBSTRUCTURE
     1  MMA      1

