@<TRIPOS>MOLECULE
2jdy_ligand_023
    27    27
SMALL
GAST_HUCK
****
This file was generated by PARSER (from files_GN.cpp)

@<TRIPOS>ATOM
      1 C1         -6.6759  -18.9567   -4.5262 C.3         1 MMA       0.1876
      2 C2         -7.4379  -18.0842   -3.4946 C.3         1 MMA       0.1341
      3 C3         -7.2500  -16.5748   -3.8229 C.3         1 MMA       0.1141
      4 C4         -5.7421  -16.2070   -3.9341 C.3         1 MMA       0.1119
      5 C5         -4.9924  -17.2098   -4.8683 C.3         1 MMA       0.1130
      6 C6         -3.4547  -17.0333   -4.8248 C.3         1 MMA       0.0730
      7 C7         -6.6162  -19.4761   -6.9063 C.3         1 MMA       0.0395
      8 O1         -7.3134  -18.8470   -5.8189 O.3         1 MMA      -0.3520
      9 O2         -6.9465  -18.4017   -2.1899 O.3         1 MMA      -0.3841
     10 O3         -7.9020  -15.7842   -2.8250 O.3         1 MMA      -0.3864
     11 O4         -5.5760  -14.8878   -4.4578 O.3         1 MMA      -0.3865
     12 O5         -5.2794  -18.5871   -4.5372 O.3         1 MMA      -0.3405
     13 O6         -2.8803  -17.6543   -3.6751 O.3         1 MMA      -0.3924
     14 H1         -6.7405  -19.9966   -4.1901 H           1 MMA       0.0937
     15 H2         -8.5020  -18.3406   -3.5233 H           1 MMA       0.0671
     16 H3         -7.7429  -16.3626   -4.7764 H           1 MMA       0.0648
     17 H4         -5.3053  -16.2362   -2.9304 H           1 MMA       0.0647
     18 H5         -5.3146  -17.0330   -5.8975 H           1 MMA       0.0647
     19 H6         -3.1878  -15.9736   -4.8432 H           1 MMA       0.0584
     20 H7         -3.0140  -17.5059   -5.7086 H           1 MMA       0.0584
     21 H8         -7.2296  -19.3862   -7.8040 H           1 MMA       0.0525
     22 H9         -6.4540  -20.5394   -6.7112 H           1 MMA       0.0525
     23 H10        -5.6561  -18.9824   -7.0915 H           1 MMA       0.0525
     24 H11        -7.7115  -18.7687   -1.6954 H           1 MMA       0.2101
     25 H12        -7.9119  -14.8633   -3.1793 H           1 MMA       0.2100
     26 H13        -6.3733  -14.3763   -4.1965 H           1 MMA       0.2100
     27 H14        -3.2550  -17.1811   -2.9041 H           1 MMA       0.2095
@<TRIPOS>BOND
     1     1     2   1
     2     1     8   1
     3     1    12   1
     4     2     3   1
     5     2     9   1
     6     3     4   1
     7     3    10   1
     8     4     5   1
     9     4    11   1
    10     5     6   1
    11     5    12   1
    12     6    13   1
    13     8     7   1
    14     1    14   1
    15     2    15   1
    16     3    16   1
    17     4    17   1
    18     5    18   1
    19     6    19   1
    20     6    20   1
    21     7    21   1
    22     7    22   1
    23     7    23   1
    24     9    24   1
    25    10    25   1
    26    11    26   1
    27    13    27   1
@<TRIPOS>SUBSTRUCTURE
     1  MMA      1

