@<TRIPOS>MOLECULE
2jdy_ligand_006
    27    27
SMALL
GAST_HUCK
****
This file was generated by PARSER (from files_GN.cpp)

@<TRIPOS>ATOM
      1 C1         -8.2727  -17.5316   -5.9327 C.3         1 MMA       0.1876
      2 C2         -7.1812  -16.4686   -5.6186 C.3         1 MMA       0.1341
      3 C3         -6.9499  -16.3652   -4.0845 C.3         1 MMA       0.1141
      4 C4         -8.2827  -16.1239   -3.3264 C.3         1 MMA       0.1119
      5 C5         -9.3502  -17.1829   -3.7541 C.3         1 MMA       0.1130
      6 C6        -10.7566  -16.8816   -3.1815 C.3         1 MMA       0.0730
      7 C7         -7.0558  -19.5518   -6.6118 C.3         1 MMA       0.0395
      8 O1         -7.8693  -18.8869   -5.6317 O.3         1 MMA      -0.3520
      9 O2         -7.6044  -15.2144   -6.1620 O.3         1 MMA      -0.3841
     10 O3         -6.0049  -15.3396   -3.7857 O.3         1 MMA      -0.3864
     11 O4         -8.0781  -16.1646   -1.9082 O.3         1 MMA      -0.3865
     12 O5         -9.4690  -17.2238   -5.1949 O.3         1 MMA      -0.3405
     13 O6        -11.7397  -17.7698   -3.7179 O.3         1 MMA      -0.3924
     14 H1         -8.5504  -17.4551   -6.9860 H           1 MMA       0.0937
     15 H2         -6.2454  -16.7431   -6.1062 H           1 MMA       0.0671
     16 H3         -6.5111  -17.3049   -3.7320 H           1 MMA       0.0648
     17 H4         -8.6599  -15.1272   -3.5849 H           1 MMA       0.0647
     18 H5         -9.0497  -18.1670   -3.3819 H           1 MMA       0.0647
     19 H6        -11.0546  -15.8533   -3.4160 H           1 MMA       0.0584
     20 H7        -10.7575  -17.0022   -2.0951 H           1 MMA       0.0584
     21 H8         -6.8391  -20.5592   -6.2551 H           1 MMA       0.0525
     22 H9         -6.1086  -19.0373   -6.7644 H           1 MMA       0.0525
     23 H10        -7.5794  -19.6331   -7.5656 H           1 MMA       0.0525
     24 H11        -6.7846  -14.7168   -6.3610 H           1 MMA       0.2101
     25 H12        -6.4527  -14.4955   -4.0053 H           1 MMA       0.2100
     26 H13        -7.6609  -15.3071   -1.6705 H           1 MMA       0.2100
     27 H14       -11.8023  -17.5447   -4.6705 H           1 MMA       0.2095
@<TRIPOS>BOND
     1     1     2   1
     2     1     8   1
     3     1    12   1
     4     2     3   1
     5     2     9   1
     6     3     4   1
     7     3    10   1
     8     4     5   1
     9     4    11   1
    10     5     6   1
    11     5    12   1
    12     6    13   1
    13     8     7   1
    14     1    14   1
    15     2    15   1
    16     3    16   1
    17     4    17   1
    18     5    18   1
    19     6    19   1
    20     6    20   1
    21     7    21   1
    22     7    22   1
    23     7    23   1
    24     9    24   1
    25    10    25   1
    26    11    26   1
    27    13    27   1
@<TRIPOS>SUBSTRUCTURE
     1  MMA      1

