@<TRIPOS>MOLECULE
2jdy_ligand_009
    27    27
SMALL
GAST_HUCK
****
This file was generated by PARSER (from files_GN.cpp)

@<TRIPOS>ATOM
      1 C1         -8.6763  -17.4698   -5.2943 C.3         1 MMA       0.1876
      2 C2         -9.0450  -18.1797   -3.9677 C.3         1 MMA       0.1341
      3 C3         -7.8085  -18.2517   -3.0322 C.3         1 MMA       0.1141
      4 C4         -7.1574  -16.8491   -2.8334 C.3         1 MMA       0.1119
      5 C5         -6.9593  -16.0850   -4.1818 C.3         1 MMA       0.1130
      6 C6         -5.6719  -16.4792   -4.9598 C.3         1 MMA       0.0730
      7 C7         -9.6012  -17.0283   -7.4924 C.3         1 MMA       0.0395
      8 O1         -9.8571  -17.3025   -6.1033 O.3         1 MMA      -0.3520
      9 O2         -9.5335  -19.4972   -4.2233 O.3         1 MMA      -0.3841
     10 O3         -6.8657  -19.1902   -3.5573 O.3         1 MMA      -0.3864
     11 O4         -8.0013  -16.1101   -1.9442 O.3         1 MMA      -0.3865
     12 O5         -8.1467  -16.1595   -5.0105 O.3         1 MMA      -0.3405
     13 O6         -5.7739  -16.1893   -6.3532 O.3         1 MMA      -0.3924
     14 H1         -7.9402  -18.0842   -5.8286 H           1 MMA       0.0937
     15 H2         -9.8389  -17.6143   -3.4695 H           1 MMA       0.0671
     16 H3         -8.1256  -18.6371   -2.0590 H           1 MMA       0.0648
     17 H4         -6.1922  -16.9664   -2.3323 H           1 MMA       0.0647
     18 H5         -6.8437  -15.0253   -3.9381 H           1 MMA       0.0647
     19 H6         -5.4649  -17.5472   -4.8682 H           1 MMA       0.0584
     20 H7         -4.8118  -15.9332   -4.5573 H           1 MMA       0.0584
     21 H8        -10.5451  -16.7805   -7.9807 H           1 MMA       0.0525
     22 H9         -9.1827  -17.9094   -7.9814 H           1 MMA       0.0525
     23 H10        -8.9181  -16.1849   -7.6271 H           1 MMA       0.0525
     24 H11       -10.3959  -19.3719   -4.6771 H           1 MMA       0.2101
     25 H12        -6.1771  -19.2834   -2.8685 H           1 MMA       0.2100
     26 H13        -7.5502  -15.2590   -1.7493 H           1 MMA       0.2100
     27 H14        -5.9068  -15.2207   -6.4192 H           1 MMA       0.2095
@<TRIPOS>BOND
     1     1     2   1
     2     1     8   1
     3     1    12   1
     4     2     3   1
     5     2     9   1
     6     3     4   1
     7     3    10   1
     8     4     5   1
     9     4    11   1
    10     5     6   1
    11     5    12   1
    12     6    13   1
    13     8     7   1
    14     1    14   1
    15     2    15   1
    16     3    16   1
    17     4    17   1
    18     5    18   1
    19     6    19   1
    20     6    20   1
    21     7    21   1
    22     7    22   1
    23     7    23   1
    24     9    24   1
    25    10    25   1
    26    11    26   1
    27    13    27   1
@<TRIPOS>SUBSTRUCTURE
     1  MMA      1

