@<TRIPOS>MOLECULE
2jdy_ligand_005
    27    27
SMALL
GAST_HUCK
****
This file was generated by PARSER (from files_GN.cpp)

@<TRIPOS>ATOM
      1 C1         -6.3833  -18.1188   -5.4741 C.3         1 MMA       0.1876
      2 C2         -5.9611  -16.6393   -5.6407 C.3         1 MMA       0.1341
      3 C3         -6.1922  -15.8529   -4.3252 C.3         1 MMA       0.1141
      4 C4         -5.5179  -16.5697   -3.1276 C.3         1 MMA       0.1119
      5 C5         -5.8226  -18.1047   -3.0688 C.3         1 MMA       0.1130
      6 C6         -7.1512  -18.5572   -2.3749 C.3         1 MMA       0.0730
      7 C7         -6.5245  -20.1709   -6.7765 C.3         1 MMA       0.0395
      8 O1         -6.0839  -18.8093   -6.7037 O.3         1 MMA      -0.3520
      9 O2         -6.6878  -16.0411   -6.7171 O.3         1 MMA      -0.3841
     10 O3         -7.5977  -15.6963   -4.1038 O.3         1 MMA      -0.3864
     11 O4         -4.1029  -16.3658   -3.2246 O.3         1 MMA      -0.3865
     12 O5         -5.6539  -18.7153   -4.3749 O.3         1 MMA      -0.3405
     13 O6         -7.9032  -17.5238   -1.7366 O.3         1 MMA      -0.3924
     14 H1         -7.4674  -18.1631   -5.2904 H           1 MMA       0.0937
     15 H2         -4.9005  -16.6004   -5.8935 H           1 MMA       0.0671
     16 H3         -5.7583  -14.8510   -4.4361 H           1 MMA       0.0648
     17 H4         -5.8365  -16.0892   -2.2066 H           1 MMA       0.0647
     18 H5         -5.0196  -18.5449   -2.4673 H           1 MMA       0.0647
     19 H6         -6.9335  -19.2864   -1.5945 H           1 MMA       0.0584
     20 H7         -7.8086  -19.0445   -3.0880 H           1 MMA       0.0584
     21 H8         -6.2911  -20.5555   -7.7695 H           1 MMA       0.0525
     22 H9         -7.6029  -20.2491   -6.6263 H           1 MMA       0.0525
     23 H10        -6.0085  -20.7895   -6.0410 H           1 MMA       0.0525
     24 H11        -6.4158  -15.0926   -6.7130 H           1 MMA       0.2101
     25 H12        -7.6835  -14.8187   -3.6609 H           1 MMA       0.2100
     26 H13        -3.7389  -16.7171   -2.3819 H           1 MMA       0.2100
     27 H14        -8.2710  -16.9928   -2.4778 H           1 MMA       0.2095
@<TRIPOS>BOND
     1     1     2   1
     2     1     8   1
     3     1    12   1
     4     2     3   1
     5     2     9   1
     6     3     4   1
     7     3    10   1
     8     4     5   1
     9     4    11   1
    10     5     6   1
    11     5    12   1
    12     6    13   1
    13     8     7   1
    14     1    14   1
    15     2    15   1
    16     3    16   1
    17     4    17   1
    18     5    18   1
    19     6    19   1
    20     6    20   1
    21     7    21   1
    22     7    22   1
    23     7    23   1
    24     9    24   1
    25    10    25   1
    26    11    26   1
    27    13    27   1
@<TRIPOS>SUBSTRUCTURE
     1  MMA      1

