@<TRIPOS>MOLECULE
2jdy_ligand_031
    27    27
SMALL
GAST_HUCK
****
This file was generated by PARSER (from files_GN.cpp)

@<TRIPOS>ATOM
      1 C1         -9.4300  -17.3765   -4.8865 C.3         1 MMA       0.1876
      2 C2         -9.1403  -16.1952   -5.8585 C.3         1 MMA       0.1341
      3 C3         -7.6146  -16.0602   -6.1146 C.3         1 MMA       0.1141
      4 C4         -6.8204  -15.9563   -4.7892 C.3         1 MMA       0.1119
      5 C5         -7.2233  -17.1277   -3.8380 C.3         1 MMA       0.1130
      6 C6         -6.6330  -16.9936   -2.4141 C.3         1 MMA       0.0730
      7 C7         -9.9738  -19.1332   -6.5100 C.3         1 MMA       0.0395
      8 O1         -9.1372  -18.6779   -5.4393 O.3         1 MMA      -0.3520
      9 O2         -9.6822  -14.9816   -5.3273 O.3         1 MMA      -0.3841
     10 O3         -7.3282  -14.9638   -6.9823 O.3         1 MMA      -0.3864
     11 O4         -5.4197  -15.9855   -5.0672 O.3         1 MMA      -0.3865
     12 O5         -8.6592  -17.2189   -3.6822 O.3         1 MMA      -0.3405
     13 O6         -7.5609  -16.3955   -1.5059 O.3         1 MMA      -0.3924
     14 H1        -10.4776  -17.3339   -4.5721 H           1 MMA       0.0937
     15 H2         -9.6456  -16.3776   -6.8102 H           1 MMA       0.0671
     16 H3         -7.2884  -16.9641   -6.6410 H           1 MMA       0.0648
     17 H4         -7.0465  -15.0097   -4.2951 H           1 MMA       0.0647
     18 H5         -6.8409  -18.0622   -4.2597 H           1 MMA       0.0647
     19 H6         -5.7034  -16.4106   -2.4304 H           1 MMA       0.0584
     20 H7         -6.3967  -17.9870   -2.0230 H           1 MMA       0.0584
     21 H8         -9.6561  -20.1406   -6.7856 H           1 MMA       0.0525
     22 H9         -9.8779  -18.4915   -7.3859 H           1 MMA       0.0525
     23 H10       -11.0211  -19.1763   -6.1980 H           1 MMA       0.0525
     24 H11        -9.3651  -14.9217   -4.4034 H           1 MMA       0.2101
     25 H12        -7.2855  -14.1655   -6.4050 H           1 MMA       0.2100
     26 H13        -5.2741  -15.2628   -5.7114 H           1 MMA       0.2100
     27 H14        -7.4021  -15.4231   -1.5607 H           1 MMA       0.2095
@<TRIPOS>BOND
     1     1     2   1
     2     1     8   1
     3     1    12   1
     4     2     3   1
     5     2     9   1
     6     3     4   1
     7     3    10   1
     8     4     5   1
     9     4    11   1
    10     5     6   1
    11     5    12   1
    12     6    13   1
    13     8     7   1
    14     1    14   1
    15     2    15   1
    16     3    16   1
    17     4    17   1
    18     5    18   1
    19     6    19   1
    20     6    20   1
    21     7    21   1
    22     7    22   1
    23     7    23   1
    24     9    24   1
    25    10    25   1
    26    11    26   1
    27    13    27   1
@<TRIPOS>SUBSTRUCTURE
     1  MMA      1

