@<TRIPOS>MOLECULE
2jdy_ligand_041
    27    27
SMALL
GAST_HUCK
****
This file was generated by PARSER (from files_GN.cpp)

@<TRIPOS>ATOM
      1 C1         -0.6119  -20.0475   -2.2718 C.3         1 MMA       0.1876
      2 C2         -0.5535  -18.5040   -2.1040 C.3         1 MMA       0.1341
      3 C3          0.9135  -18.0284   -2.0594 C.3         1 MMA       0.1141
      4 C4          1.7223  -18.7916   -0.9713 C.3         1 MMA       0.1119
      5 C5          1.5687  -20.3303   -1.1792 C.3         1 MMA       0.1130
      6 C6          2.2214  -21.1657   -0.0461 C.3         1 MMA       0.0730
      7 C7         -0.2212  -21.8481   -3.8710 C.3         1 MMA       0.0395
      8 O1         -0.1982  -20.4303   -3.6025 O.3         1 MMA      -0.3520
      9 O2         -1.2111  -18.1344   -0.8947 O.3         1 MMA      -0.3841
     10 O3          0.9802  -16.6190   -1.8626 O.3         1 MMA      -0.3864
     11 O4          3.0975  -18.3961   -1.0135 O.3         1 MMA      -0.3865
     12 O5          0.1720  -20.6915   -1.2370 O.3         1 MMA      -0.3405
     13 O6          3.6400  -21.0567   -0.0444 O.3         1 MMA      -0.3924
     14 H1         -1.6583  -20.3551   -2.1368 H           1 MMA       0.0937
     15 H2         -1.0681  -18.0210   -2.9455 H           1 MMA       0.0671
     16 H3          1.3825  -18.2280   -3.0289 H           1 MMA       0.0648
     17 H4          1.3310  -18.5170    0.0105 H           1 MMA       0.0647
     18 H5          2.0551  -20.6192   -2.1261 H           1 MMA       0.0647
     19 H6          1.9754  -22.2217   -0.1887 H           1 MMA       0.0584
     20 H7          1.8365  -20.8540    0.9226 H           1 MMA       0.0584
     21 H8          0.0683  -22.0107   -4.9116 H           1 MMA       0.0525
     22 H9         -1.2237  -22.2589   -3.7160 H           1 MMA       0.0525
     23 H10         0.4910  -22.3756   -3.2336 H           1 MMA       0.0525
     24 H11        -2.1510  -17.9900   -1.1380 H           1 MMA       0.2101
     25 H12         0.2026  -16.3771   -1.3221 H           1 MMA       0.2100
     26 H13         3.4054  -18.6051   -1.9180 H           1 MMA       0.2100
     27 H14         3.8307  -20.1309    0.2154 H           1 MMA       0.2095
@<TRIPOS>BOND
     1     1     2   1
     2     1     8   1
     3     1    12   1
     4     2     3   1
     5     2     9   1
     6     3     4   1
     7     3    10   1
     8     4     5   1
     9     4    11   1
    10     5     6   1
    11     5    12   1
    12     6    13   1
    13     8     7   1
    14     1    14   1
    15     2    15   1
    16     3    16   1
    17     4    17   1
    18     5    18   1
    19     6    19   1
    20     6    20   1
    21     7    21   1
    22     7    22   1
    23     7    23   1
    24     9    24   1
    25    10    25   1
    26    11    26   1
    27    13    27   1
@<TRIPOS>SUBSTRUCTURE
     1  MMA      1

