@<TRIPOS>MOLECULE
2jdy_ligand_033
    27    27
SMALL
GAST_HUCK
****
This file was generated by PARSER (from files_GN.cpp)

@<TRIPOS>ATOM
      1 C1          1.2857  -18.9939   -3.1474 C.3         1 MMA       0.1876
      2 C2          0.9479  -18.2971   -1.8028 C.3         1 MMA       0.1341
      3 C3         -0.3016  -18.9584   -1.1505 C.3         1 MMA       0.1141
      4 C4         -1.4938  -19.0058   -2.1436 C.3         1 MMA       0.1119
      5 C5         -1.0525  -19.6320   -3.5032 C.3         1 MMA       0.1130
      6 C6         -2.1614  -19.5668   -4.5871 C.3         1 MMA       0.0730
      7 C7          2.2720  -21.0280   -4.0460 C.3         1 MMA       0.0395
      8 O1          1.7789  -20.3274   -2.8920 O.3         1 MMA      -0.3520
      9 O2          0.7316  -16.9070   -2.0588 O.3         1 MMA      -0.3841
     10 O3         -0.6564  -18.2624    0.0409 O.3         1 MMA      -0.3864
     11 O4         -2.5748  -19.7640   -1.5923 O.3         1 MMA      -0.3865
     12 O5          0.1280  -18.9715   -4.0132 O.3         1 MMA      -0.3405
     13 O6         -2.8564  -18.3215   -4.6078 O.3         1 MMA      -0.3924
     14 H1          2.0808  -18.4144   -3.6317 H           1 MMA       0.0937
     15 H2          1.8002  -18.3845   -1.1230 H           1 MMA       0.0671
     16 H3         -0.0418  -19.9834   -0.8622 H           1 MMA       0.0648
     17 H4         -1.8373  -17.9824   -2.3126 H           1 MMA       0.0647
     18 H5         -0.8205  -20.6956   -3.3454 H           1 MMA       0.0647
     19 H6         -2.8942  -20.3588   -4.4143 H           1 MMA       0.0584
     20 H7         -1.7182  -19.7320   -5.5725 H           1 MMA       0.0584
     21 H8          2.6043  -22.0158   -3.7278 H           1 MMA       0.0525
     22 H9          3.1231  -20.5042   -4.4866 H           1 MMA       0.0525
     23 H10         1.4906  -21.1530   -4.7977 H           1 MMA       0.0525
     24 H11         0.0402  -16.6051   -1.4337 H           1 MMA       0.2101
     25 H12        -1.3908  -18.7824    0.4308 H           1 MMA       0.2100
     26 H13        -3.0817  -19.1206   -1.0488 H           1 MMA       0.2100
     27 H14        -2.2205  -17.6662   -4.9584 H           1 MMA       0.2095
@<TRIPOS>BOND
     1     1     2   1
     2     1     8   1
     3     1    12   1
     4     2     3   1
     5     2     9   1
     6     3     4   1
     7     3    10   1
     8     4     5   1
     9     4    11   1
    10     5     6   1
    11     5    12   1
    12     6    13   1
    13     8     7   1
    14     1    14   1
    15     2    15   1
    16     3    16   1
    17     4    17   1
    18     5    18   1
    19     6    19   1
    20     6    20   1
    21     7    21   1
    22     7    22   1
    23     7    23   1
    24     9    24   1
    25    10    25   1
    26    11    26   1
    27    13    27   1
@<TRIPOS>SUBSTRUCTURE
     1  MMA      1

