@<TRIPOS>MOLECULE
2jdy_ligand_008
    27    27
SMALL
GAST_HUCK
****
This file was generated by PARSER (from files_GN.cpp)

@<TRIPOS>ATOM
      1 C1         -6.7769  -16.8995   -3.0042 C.3         1 MMA       0.1876
      2 C2         -6.6452  -16.1109   -4.3367 C.3         1 MMA       0.1341
      3 C3         -6.2333  -17.0545   -5.4963 C.3         1 MMA       0.1141
      4 C4         -4.9726  -17.8892   -5.1366 C.3         1 MMA       0.1119
      5 C5         -5.1937  -18.6169   -3.7764 C.3         1 MMA       0.1130
      6 C6         -3.9528  -19.3978   -3.2717 C.3         1 MMA       0.0730
      7 C7         -8.0875  -18.6877   -1.9902 C.3         1 MMA       0.0395
      8 O1         -7.9661  -17.7194   -3.0454 O.3         1 MMA      -0.3520
      9 O2         -5.6571  -15.0891   -4.2000 O.3         1 MMA      -0.3841
     10 O3         -6.0149  -16.3048   -6.6954 O.3         1 MMA      -0.3864
     11 O4         -4.7282  -18.8202   -6.1910 O.3         1 MMA      -0.3865
     12 O5         -5.5738  -17.6649   -2.7539 O.3         1 MMA      -0.3405
     13 O6         -2.8192  -18.5566   -3.0757 O.3         1 MMA      -0.3924
     14 H1         -6.8838  -16.1705   -2.1932 H           1 MMA       0.0937
     15 H2         -7.6007  -15.6365   -4.5836 H           1 MMA       0.0671
     16 H3         -7.0625  -17.7403   -5.7033 H           1 MMA       0.0648
     17 H4         -4.1091  -17.2194   -5.0628 H           1 MMA       0.0647
     18 H5         -5.9984  -19.3498   -3.9025 H           1 MMA       0.0647
     19 H6         -3.6866  -20.1792   -3.9861 H           1 MMA       0.0584
     20 H7         -4.1893  -19.8845   -2.3226 H           1 MMA       0.0584
     21 H8         -9.0604  -19.1763   -2.0872 H           1 MMA       0.0525
     22 H9         -8.0323  -18.2122   -1.0078 H           1 MMA       0.0525
     23 H10        -7.3098  -19.4513   -2.0760 H           1 MMA       0.0525
     24 H11        -6.1608  -14.2511   -4.1168 H           1 MMA       0.2101
     25 H12        -5.9846  -15.3566   -6.4477 H           1 MMA       0.2100
     26 H13        -3.7991  -19.1111   -6.0707 H           1 MMA       0.2100
     27 H14        -2.9960  -18.0960   -2.2291 H           1 MMA       0.2095
@<TRIPOS>BOND
     1     1     2   1
     2     1     8   1
     3     1    12   1
     4     2     3   1
     5     2     9   1
     6     3     4   1
     7     3    10   1
     8     4     5   1
     9     4    11   1
    10     5     6   1
    11     5    12   1
    12     6    13   1
    13     8     7   1
    14     1    14   1
    15     2    15   1
    16     3    16   1
    17     4    17   1
    18     5    18   1
    19     6    19   1
    20     6    20   1
    21     7    21   1
    22     7    22   1
    23     7    23   1
    24     9    24   1
    25    10    25   1
    26    11    26   1
    27    13    27   1
@<TRIPOS>SUBSTRUCTURE
     1  MMA      1

