@<TRIPOS>MOLECULE
2jdy_ligand_001
    27    27
SMALL
GAST_HUCK
****
This file was generated by PARSER (from files_GN.cpp)

@<TRIPOS>ATOM
      1 C1        -10.7493  -17.8406   -3.0312 C.3         1 MMA       0.1876
      2 C2        -11.4424  -16.9600   -4.1049 C.3         1 MMA       0.1341
      3 C3        -10.4320  -16.5435   -5.2102 C.3         1 MMA       0.1141
      4 C4         -9.1691  -15.8885   -4.5895 C.3         1 MMA       0.1119
      5 C5         -8.5563  -16.8239   -3.5017 C.3         1 MMA       0.1130
      6 C6         -7.3352  -16.1880   -2.7675 C.3         1 MMA       0.0730
      7 C7        -10.1161  -20.1582   -2.6305 C.3         1 MMA       0.0395
      8 O1        -10.4500  -19.1401   -3.5871 O.3         1 MMA      -0.3520
      9 O2        -12.0119  -15.8047   -3.4749 O.3         1 MMA      -0.3841
     10 O3        -11.0421  -15.6455   -6.1338 O.3         1 MMA      -0.3864
     11 O4         -8.2274  -15.5945   -5.6274 O.3         1 MMA      -0.3865
     12 O5         -9.5716  -17.1797   -2.5279 O.3         1 MMA      -0.3405
     13 O6         -7.5573  -16.0128   -1.3726 O.3         1 MMA      -0.3924
     14 H1        -11.4520  -17.9484   -2.1986 H           1 MMA       0.0937
     15 H2        -12.2626  -17.5259   -4.5616 H           1 MMA       0.0671
     16 H3        -10.1296  -17.4332   -5.7679 H           1 MMA       0.0648
     17 H4         -9.4570  -14.9405   -4.1247 H           1 MMA       0.0647
     18 H5         -8.2088  -17.7453   -3.9862 H           1 MMA       0.0647
     19 H6         -7.0737  -15.2152   -3.1846 H           1 MMA       0.0584
     20 H7         -6.4604  -16.8329   -2.8716 H           1 MMA       0.0584
     21 H8         -9.8962  -21.0788   -3.1732 H           1 MMA       0.0525
     22 H9        -10.9586  -20.3496   -1.9609 H           1 MMA       0.0525
     23 H10        -9.2362  -19.8892   -2.0413 H           1 MMA       0.0525
     24 H11       -12.4987  -15.3339   -4.1880 H           1 MMA       0.2101
     25 H12       -11.8377  -16.1146   -6.4621 H           1 MMA       0.2100
     26 H13        -7.7581  -14.7834   -5.3213 H           1 MMA       0.2100
     27 H14        -7.6456  -15.0474   -1.2390 H           1 MMA       0.2095
@<TRIPOS>BOND
     1     1     2   1
     2     1     8   1
     3     1    12   1
     4     2     3   1
     5     2     9   1
     6     3     4   1
     7     3    10   1
     8     4     5   1
     9     4    11   1
    10     5     6   1
    11     5    12   1
    12     6    13   1
    13     8     7   1
    14     1    14   1
    15     2    15   1
    16     3    16   1
    17     4    17   1
    18     5    18   1
    19     6    19   1
    20     6    20   1
    21     7    21   1
    22     7    22   1
    23     7    23   1
    24     9    24   1
    25    10    25   1
    26    11    26   1
    27    13    27   1
@<TRIPOS>SUBSTRUCTURE
     1  MMA      1

