@<TRIPOS>MOLECULE
2jdy_ligand_036
    27    27
SMALL
GAST_HUCK
****
This file was generated by PARSER (from files_GN.cpp)

@<TRIPOS>ATOM
      1 C1         -8.9881  -17.5705   -3.3621 C.3         1 MMA       0.1876
      2 C2         -8.7368  -16.0570   -3.5957 C.3         1 MMA       0.1341
      3 C3         -9.4982  -15.5469   -4.8511 C.3         1 MMA       0.1141
      4 C4        -10.9975  -15.9614   -4.8158 C.3         1 MMA       0.1119
      5 C5        -11.1889  -17.4724   -4.4837 C.3         1 MMA       0.1130
      6 C6        -10.9858  -18.4338   -5.6865 C.3         1 MMA       0.0730
      7 C7         -7.2340  -18.6284   -2.0148 C.3         1 MMA       0.0395
      8 O1         -8.5008  -17.9501   -2.0575 O.3         1 MMA      -0.3520
      9 O2         -7.3394  -15.7895   -3.7048 O.3         1 MMA      -0.3841
     10 O3         -8.8826  -16.0260   -6.0475 O.3         1 MMA      -0.3864
     11 O4        -11.6838  -15.1981   -3.8199 O.3         1 MMA      -0.3865
     12 O5        -10.4036  -17.8514   -3.3304 O.3         1 MMA      -0.3405
     13 O6        -11.2038  -19.7852   -5.2915 O.3         1 MMA      -0.3924
     14 H1         -8.5256  -18.1586   -4.1635 H           1 MMA       0.0937
     15 H2         -9.1009  -15.5121   -2.7224 H           1 MMA       0.0671
     16 H3         -9.4394  -14.4560   -4.8807 H           1 MMA       0.0648
     17 H4        -11.4652  -15.7287   -5.7766 H           1 MMA       0.0647
     18 H5        -12.2319  -17.6065   -4.1812 H           1 MMA       0.0647
     19 H6         -9.9772  -18.3601   -6.0903 H           1 MMA       0.0584
     20 H7        -11.6922  -18.1881   -6.4829 H           1 MMA       0.0584
     21 H8         -7.0041  -18.8576   -0.9758 H           1 MMA       0.0525
     22 H9         -6.4350  -18.0037   -2.4175 H           1 MMA       0.0525
     23 H10        -7.2794  -19.5672   -2.5706 H           1 MMA       0.0525
     24 H11        -7.2742  -14.8127   -3.7518 H           1 MMA       0.2101
     25 H12        -7.9712  -15.6629   -6.0355 H           1 MMA       0.2100
     26 H13       -11.5405  -14.2556   -4.0479 H           1 MMA       0.2100
     27 H14       -12.1252  -19.8115   -4.9562 H           1 MMA       0.2095
@<TRIPOS>BOND
     1     1     2   1
     2     1     8   1
     3     1    12   1
     4     2     3   1
     5     2     9   1
     6     3     4   1
     7     3    10   1
     8     4     5   1
     9     4    11   1
    10     5     6   1
    11     5    12   1
    12     6    13   1
    13     8     7   1
    14     1    14   1
    15     2    15   1
    16     3    16   1
    17     4    17   1
    18     5    18   1
    19     6    19   1
    20     6    20   1
    21     7    21   1
    22     7    22   1
    23     7    23   1
    24     9    24   1
    25    10    25   1
    26    11    26   1
    27    13    27   1
@<TRIPOS>SUBSTRUCTURE
     1  MMA      1

