@<TRIPOS>MOLECULE
2jdy_ligand_019
    27    27
SMALL
GAST_HUCK
****
This file was generated by PARSER (from files_GN.cpp)

@<TRIPOS>ATOM
      1 C1         -6.7746  -18.6897   -3.0209 C.3         1 MMA       0.1876
      2 C2         -8.1452  -18.1034   -2.6057 C.3         1 MMA       0.1341
      3 C3         -8.4511  -16.8257   -3.4313 C.3         1 MMA       0.1141
      4 C4         -8.3318  -17.1055   -4.9556 C.3         1 MMA       0.1119
      5 C5         -7.0220  -17.8715   -5.3221 C.3         1 MMA       0.1130
      6 C6         -5.7572  -16.9907   -5.4812 C.3         1 MMA       0.0730
      7 C7         -5.2042  -20.4024   -2.2786 C.3         1 MMA       0.0395
      8 O1         -6.5717  -19.9336   -2.3095 O.3         1 MMA      -0.3520
      9 O2         -8.1465  -17.8090   -1.2157 O.3         1 MMA      -0.3841
     10 O3         -7.5770  -15.7623   -3.0300 O.3         1 MMA      -0.3864
     11 O4         -9.4688  -17.8841   -5.3445 O.3         1 MMA      -0.3865
     12 O5         -6.7805  -18.9783   -4.4369 O.3         1 MMA      -0.3405
     13 O6         -5.8139  -16.2560   -6.6977 O.3         1 MMA      -0.3924
     14 H1         -5.9845  -17.9686   -2.7661 H           1 MMA       0.0937
     15 H2         -8.9184  -18.8484   -2.7966 H           1 MMA       0.0671
     16 H3         -9.4699  -16.5007   -3.2015 H           1 MMA       0.0648
     17 H4         -8.3911  -16.1583   -5.4995 H           1 MMA       0.0647
     18 H5         -7.1955  -18.3295   -6.2979 H           1 MMA       0.0647
     19 H6         -4.8750  -17.6348   -5.5310 H           1 MMA       0.0584
     20 H7         -5.6228  -16.3028   -4.6408 H           1 MMA       0.0584
     21 H8         -5.1886  -21.3960   -1.8157 H           1 MMA       0.0525
     22 H9         -4.5810  -19.7138   -1.6858 H           1 MMA       0.0525
     23 H10        -4.7859  -20.4853   -3.2931 H           1 MMA       0.0525
     24 H11        -7.8266  -18.6135   -0.7653 H           1 MMA       0.2101
     25 H12        -7.9086  -14.9635   -3.4832 H           1 MMA       0.2100
     26 H13        -9.4262  -17.9272   -6.3263 H           1 MMA       0.2100
     27 H14        -5.9962  -15.3147   -6.4574 H           1 MMA       0.2095
@<TRIPOS>BOND
     1     1     2   1
     2     1     8   1
     3     1    12   1
     4     2     3   1
     5     2     9   1
     6     3     4   1
     7     3    10   1
     8     4     5   1
     9     4    11   1
    10     5     6   1
    11     5    12   1
    12     6    13   1
    13     8     7   1
    14     1    14   1
    15     2    15   1
    16     3    16   1
    17     4    17   1
    18     5    18   1
    19     6    19   1
    20     6    20   1
    21     7    21   1
    22     7    22   1
    23     7    23   1
    24     9    24   1
    25    10    25   1
    26    11    26   1
    27    13    27   1
@<TRIPOS>SUBSTRUCTURE
     1  MMA      1

