@<TRIPOS>MOLECULE
2jdy_ligand_004
    27    27
SMALL
GAST_HUCK
****
This file was generated by PARSER (from files_GN.cpp)

@<TRIPOS>ATOM
      1 C1         -5.2072  -18.2192   -5.1771 C.3         1 MMA       0.1876
      2 C2         -5.0518  -16.6979   -5.4630 C.3         1 MMA       0.1341
      3 C3         -5.5314  -15.8591   -4.2489 C.3         1 MMA       0.1141
      4 C4         -6.9717  -16.2651   -3.8211 C.3         1 MMA       0.1119
      5 C5         -7.0653  -17.8096   -3.6236 C.3         1 MMA       0.1130
      6 C6         -8.5132  -18.3017   -3.3722 C.3         1 MMA       0.0730
      7 C7         -2.9149  -18.5172   -4.3294 C.3         1 MMA       0.0395
      8 O1         -4.3265  -18.7122   -4.1392 O.3         1 MMA      -0.3520
      9 O2         -5.8136  -16.3541   -6.6230 O.3         1 MMA      -0.3841
     10 O3         -5.4476  -14.4814   -4.6151 O.3         1 MMA      -0.3864
     11 O4         -7.3349  -15.6081   -2.6075 O.3         1 MMA      -0.3865
     12 O5         -6.5717  -18.5038   -4.7954 O.3         1 MMA      -0.3405
     13 O6         -9.0490  -17.7638   -2.1637 O.3         1 MMA      -0.3924
     14 H1         -5.0316  -18.7771   -6.1032 H           1 MMA       0.0937
     15 H2         -4.0090  -16.4593   -5.6803 H           1 MMA       0.0671
     16 H3         -4.8521  -16.0200   -3.4061 H           1 MMA       0.0648
     17 H4         -7.6753  -15.9567   -4.5999 H           1 MMA       0.0647
     18 H5         -6.4642  -18.0989   -2.7538 H           1 MMA       0.0647
     19 H6         -8.5162  -19.3919   -3.2873 H           1 MMA       0.0584
     20 H7         -9.1590  -18.0194   -4.2083 H           1 MMA       0.0584
     21 H8         -2.3928  -18.9878   -3.4961 H           1 MMA       0.0525
     22 H9         -2.6547  -17.4583   -4.3396 H           1 MMA       0.0525
     23 H10        -2.5778  -18.9873   -5.2564 H           1 MMA       0.0525
     24 H11        -5.8625  -15.3731   -6.6081 H           1 MMA       0.2101
     25 H12        -6.2907  -14.0696   -4.3471 H           1 MMA       0.2100
     26 H13        -7.5143  -14.6740   -2.8513 H           1 MMA       0.2100
     27 H14        -9.8019  -18.3490   -1.9317 H           1 MMA       0.2095
@<TRIPOS>BOND
     1     1     2   1
     2     1     8   1
     3     1    12   1
     4     2     3   1
     5     2     9   1
     6     3     4   1
     7     3    10   1
     8     4     5   1
     9     4    11   1
    10     5     6   1
    11     5    12   1
    12     6    13   1
    13     8     7   1
    14     1    14   1
    15     2    15   1
    16     3    16   1
    17     4    17   1
    18     5    18   1
    19     6    19   1
    20     6    20   1
    21     7    21   1
    22     7    22   1
    23     7    23   1
    24     9    24   1
    25    10    25   1
    26    11    26   1
    27    13    27   1
@<TRIPOS>SUBSTRUCTURE
     1  MMA      1

