@<TRIPOS>MOLECULE
2jdy_ligand_020
    27    27
SMALL
GAST_HUCK
****
This file was generated by PARSER (from files_GN.cpp)

@<TRIPOS>ATOM
      1 C1         -5.6215  -17.6618   -5.2884 C.3         1 MMA       0.1876
      2 C2         -6.4442  -18.8959   -5.7408 C.3         1 MMA       0.1341
      3 C3         -7.5022  -19.2762   -4.6697 C.3         1 MMA       0.1141
      4 C4         -8.3527  -18.0429   -4.2368 C.3         1 MMA       0.1119
      5 C5         -7.4891  -16.7715   -3.9593 C.3         1 MMA       0.1130
      6 C6         -6.8292  -16.7287   -2.5436 C.3         1 MMA       0.0730
      7 C7         -3.3747  -17.1180   -6.1097 C.3         1 MMA       0.0395
      8 O1         -4.7876  -17.2457   -6.3817 O.3         1 MMA      -0.3520
      9 O2         -5.5897  -20.0037   -6.0205 O.3         1 MMA      -0.3841
     10 O3         -6.8521  -19.8718   -3.5446 O.3         1 MMA      -0.3864
     11 O4         -9.2869  -17.7415   -5.2785 O.3         1 MMA      -0.3865
     12 O5         -6.5212  -16.5656   -5.0101 O.3         1 MMA      -0.3405
     13 O6         -7.7066  -16.2134   -1.5495 O.3         1 MMA      -0.3924
     14 H1         -5.0557  -17.9004   -4.3859 H           1 MMA       0.0937
     15 H2         -6.9595  -18.6465   -6.6708 H           1 MMA       0.0671
     16 H3         -8.1630  -20.0436   -5.0915 H           1 MMA       0.0648
     17 H4         -8.9389  -18.3007   -3.3471 H           1 MMA       0.0647
     18 H5         -8.1565  -15.9034   -4.0051 H           1 MMA       0.0647
     19 H6         -5.9326  -16.1045   -2.5609 H           1 MMA       0.0584
     20 H7         -6.5279  -17.7279   -2.2344 H           1 MMA       0.0584
     21 H8         -2.8712  -16.8378   -7.0330 H           1 MMA       0.0525
     22 H9         -2.9606  -18.0689   -5.7605 H           1 MMA       0.0525
     23 H10        -3.1962  -16.3405   -5.3622 H           1 MMA       0.0525
     24 H11        -5.1142  -20.1906   -5.1833 H           1 MMA       0.2101
     25 H12        -7.5774  -20.1904   -2.9666 H           1 MMA       0.2100
     26 H13        -9.9093  -18.4993   -5.2993 H           1 MMA       0.2100
     27 H14        -7.5560  -15.2423   -1.5222 H           1 MMA       0.2095
@<TRIPOS>BOND
     1     1     2   1
     2     1     8   1
     3     1    12   1
     4     2     3   1
     5     2     9   1
     6     3     4   1
     7     3    10   1
     8     4     5   1
     9     4    11   1
    10     5     6   1
    11     5    12   1
    12     6    13   1
    13     8     7   1
    14     1    14   1
    15     2    15   1
    16     3    16   1
    17     4    17   1
    18     5    18   1
    19     6    19   1
    20     6    20   1
    21     7    21   1
    22     7    22   1
    23     7    23   1
    24     9    24   1
    25    10    25   1
    26    11    26   1
    27    13    27   1
@<TRIPOS>SUBSTRUCTURE
     1  MMA      1

