@<TRIPOS>MOLECULE
2jdy_ligand_035
    27    27
SMALL
GAST_HUCK
****
This file was generated by PARSER (from files_GN.cpp)

@<TRIPOS>ATOM
      1 C1         -7.3013  -16.5086   -3.9499 C.3         1 MMA       0.1876
      2 C2         -7.1832  -17.1975   -2.5647 C.3         1 MMA       0.1341
      3 C3         -7.9040  -18.5745   -2.5288 C.3         1 MMA       0.1141
      4 C4         -7.5224  -19.4540   -3.7563 C.3         1 MMA       0.1119
      5 C5         -7.5830  -18.6706   -5.1102 C.3         1 MMA       0.1130
      6 C6         -8.9854  -18.5735   -5.7720 C.3         1 MMA       0.0730
      7 C7         -6.0682  -14.7870   -5.1787 C.3         1 MMA       0.0395
      8 O1         -6.4485  -15.3472   -3.9099 O.3         1 MMA      -0.3520
      9 O2         -7.7204  -16.3722   -1.5324 O.3         1 MMA      -0.3841
     10 O3         -9.3135  -18.4144   -2.4235 O.3         1 MMA      -0.3864
     11 O4         -6.1907  -19.9335   -3.5729 O.3         1 MMA      -0.3865
     12 O5         -6.8981  -17.4048   -5.0098 O.3         1 MMA      -0.3405
     13 O6         -9.9543  -17.8607   -5.0156 O.3         1 MMA      -0.3924
     14 H1         -8.3237  -16.1696   -4.1103 H           1 MMA       0.0937
     15 H2         -6.1251  -17.3606   -2.3572 H           1 MMA       0.0671
     16 H3         -7.5984  -19.0903   -1.6108 H           1 MMA       0.0648
     17 H4         -8.1777  -20.3308   -3.8076 H           1 MMA       0.0647
     18 H5         -6.9854  -19.2485   -5.8249 H           1 MMA       0.0647
     19 H6         -9.3732  -19.5759   -5.9561 H           1 MMA       0.0584
     20 H7         -8.8820  -18.0688   -6.7376 H           1 MMA       0.0584
     21 H8         -5.6313  -13.8067   -4.9925 H           1 MMA       0.0525
     22 H9         -6.9249  -14.6647   -5.8463 H           1 MMA       0.0525
     23 H10        -5.3147  -15.4166   -5.6580 H           1 MMA       0.0525
     24 H11        -7.4045  -15.4549   -1.6824 H           1 MMA       0.2101
     25 H12        -9.6758  -19.3278   -2.4498 H           1 MMA       0.2100
     26 H13        -6.2384  -20.5463   -2.8090 H           1 MMA       0.2100
     27 H14       -10.7762  -17.8826   -5.5488 H           1 MMA       0.2095
@<TRIPOS>BOND
     1     1     2   1
     2     1     8   1
     3     1    12   1
     4     2     3   1
     5     2     9   1
     6     3     4   1
     7     3    10   1
     8     4     5   1
     9     4    11   1
    10     5     6   1
    11     5    12   1
    12     6    13   1
    13     8     7   1
    14     1    14   1
    15     2    15   1
    16     3    16   1
    17     4    17   1
    18     5    18   1
    19     6    19   1
    20     6    20   1
    21     7    21   1
    22     7    22   1
    23     7    23   1
    24     9    24   1
    25    10    25   1
    26    11    26   1
    27    13    27   1
@<TRIPOS>SUBSTRUCTURE
     1  MMA      1

