@<TRIPOS>MOLECULE
2jdy_ligand_017
    27    27
SMALL
GAST_HUCK
****
This file was generated by PARSER (from files_GN.cpp)

@<TRIPOS>ATOM
      1 C1         -6.5303  -16.7838   -5.1582 C.3         1 MMA       0.1876
      2 C2         -7.1032  -16.0467   -3.9111 C.3         1 MMA       0.1341
      3 C3         -6.9685  -16.9530   -2.6594 C.3         1 MMA       0.1141
      4 C4         -7.6134  -18.3475   -2.8984 C.3         1 MMA       0.1119
      5 C5         -7.0849  -18.9827   -4.2213 C.3         1 MMA       0.1130
      6 C6         -7.8505  -20.2808   -4.5857 C.3         1 MMA       0.0730
      7 C7         -4.2338  -15.9208   -4.8866 C.3         1 MMA       0.0395
      8 O1         -5.1059  -17.0403   -5.1126 O.3         1 MMA      -0.3520
      9 O2         -8.4766  -15.7153   -4.1367 O.3         1 MMA      -0.3841
     10 O3         -7.5751  -16.3417   -1.5220 O.3         1 MMA      -0.3864
     11 O4         -7.3550  -19.2000   -1.7826 O.3         1 MMA      -0.3865
     12 O5         -7.2104  -18.0511   -5.3243 O.3         1 MMA      -0.3405
     13 O6         -7.2995  -20.8986   -5.7470 O.3         1 MMA      -0.3924
     14 H1         -6.7499  -16.1840   -6.0474 H           1 MMA       0.0937
     15 H2         -6.5506  -15.1155   -3.7478 H           1 MMA       0.0671
     16 H3         -5.9045  -17.0852   -2.4399 H           1 MMA       0.0648
     17 H4         -8.6982  -18.2260   -2.9732 H           1 MMA       0.0647
     18 H5         -6.0315  -19.2510   -4.0887 H           1 MMA       0.0647
     19 H6         -8.9011  -20.0552   -4.7834 H           1 MMA       0.0584
     20 H7         -7.7983  -20.9964   -3.7610 H           1 MMA       0.0584
     21 H8         -3.2076  -16.2590   -5.0287 H           1 MMA       0.0525
     22 H9         -4.3299  -15.5549   -3.8615 H           1 MMA       0.0525
     23 H10        -4.4367  -15.1091   -5.5880 H           1 MMA       0.0525
     24 H11        -8.5280  -14.7455   -4.0067 H           1 MMA       0.2101
     25 H12        -7.2539  -15.4145   -1.4985 H           1 MMA       0.2100
     26 H13        -6.3796  -19.2205   -1.6843 H           1 MMA       0.2100
     27 H14        -6.4149  -21.2202   -5.4711 H           1 MMA       0.2095
@<TRIPOS>BOND
     1     1     2   1
     2     1     8   1
     3     1    12   1
     4     2     3   1
     5     2     9   1
     6     3     4   1
     7     3    10   1
     8     4     5   1
     9     4    11   1
    10     5     6   1
    11     5    12   1
    12     6    13   1
    13     8     7   1
    14     1    14   1
    15     2    15   1
    16     3    16   1
    17     4    17   1
    18     5    18   1
    19     6    19   1
    20     6    20   1
    21     7    21   1
    22     7    22   1
    23     7    23   1
    24     9    24   1
    25    10    25   1
    26    11    26   1
    27    13    27   1
@<TRIPOS>SUBSTRUCTURE
     1  MMA      1

