@<TRIPOS>MOLECULE
2jdy_ligand_028
    27    27
SMALL
GAST_HUCK
****
This file was generated by PARSER (from files_GN.cpp)

@<TRIPOS>ATOM
      1 C1         -6.7560  -19.4744   -4.4752 C.3         1 MMA       0.1876
      2 C2         -6.5203  -20.6236   -3.4678 C.3         1 MMA       0.1341
      3 C3         -6.5270  -20.0752   -2.0143 C.3         1 MMA       0.1141
      4 C4         -7.8212  -19.2773   -1.7305 C.3         1 MMA       0.1119
      5 C5         -8.1444  -18.2379   -2.8499 C.3         1 MMA       0.1130
      6 C6         -7.4119  -16.8710   -2.7073 C.3         1 MMA       0.0730
      7 C7         -6.9190  -19.1677   -6.8895 C.3         1 MMA       0.0395
      8 O1         -6.8495  -20.0746   -5.7832 O.3         1 MMA      -0.3520
      9 O2         -5.2757  -21.2820   -3.7460 O.3         1 MMA      -0.3841
     10 O3         -5.3774  -19.2492   -1.8176 O.3         1 MMA      -0.3864
     11 O4         -8.9066  -20.1915   -1.6379 O.3         1 MMA      -0.3865
     12 O5         -7.9866  -18.7854   -4.1788 O.3         1 MMA      -0.3405
     13 O6         -7.8220  -16.2037   -1.5058 O.3         1 MMA      -0.3924
     14 H1         -5.9082  -18.7814   -4.4208 H           1 MMA       0.0937
     15 H2         -7.3172  -21.3657   -3.5787 H           1 MMA       0.0671
     16 H3         -6.4412  -20.9261   -1.3292 H           1 MMA       0.0648
     17 H4         -7.7334  -18.7792   -0.7630 H           1 MMA       0.0647
     18 H5         -9.2109  -17.9917   -2.7666 H           1 MMA       0.0647
     19 H6         -7.6651  -16.2240   -3.5602 H           1 MMA       0.0584
     20 H7         -6.3207  -16.9921   -2.6806 H           1 MMA       0.0584
     21 H8         -7.1002  -19.7364   -7.7951 H           1 MMA       0.0525
     22 H9         -5.9715  -18.6515   -7.0010 H           1 MMA       0.0525
     23 H10        -7.7295  -18.4396   -6.7637 H           1 MMA       0.0525
     24 H11        -5.4201  -21.7437   -4.6029 H           1 MMA       0.2101
     25 H12        -4.7677  -19.7944   -1.2558 H           1 MMA       0.2100
     26 H13        -8.7380  -20.7345   -0.8410 H           1 MMA       0.2100
     27 H14        -7.5226  -15.2755   -1.5698 H           1 MMA       0.2095
@<TRIPOS>BOND
     1     1     2   1
     2     1     8   1
     3     1    12   1
     4     2     3   1
     5     2     9   1
     6     3     4   1
     7     3    10   1
     8     4     5   1
     9     4    11   1
    10     5     6   1
    11     5    12   1
    12     6    13   1
    13     8     7   1
    14     1    14   1
    15     2    15   1
    16     3    16   1
    17     4    17   1
    18     5    18   1
    19     6    19   1
    20     6    20   1
    21     7    21   1
    22     7    22   1
    23     7    23   1
    24     9    24   1
    25    10    25   1
    26    11    26   1
    27    13    27   1
@<TRIPOS>SUBSTRUCTURE
     1  MMA      1

