@<TRIPOS>MOLECULE
2jdy_ligand_043
    27    27
SMALL
GAST_HUCK
****
This file was generated by PARSER (from files_GN.cpp)

@<TRIPOS>ATOM
      1 C1         -0.0543  -20.6936   -1.2206 C.3         1 MMA       0.1876
      2 C2         -1.4301  -19.9803   -1.2828 C.3         1 MMA       0.1341
      3 C3         -1.2536  -18.5036   -1.7298 C.3         1 MMA       0.1141
      4 C4         -0.2051  -17.7631   -0.8556 C.3         1 MMA       0.1119
      5 C5          1.1248  -18.5799   -0.7852 C.3         1 MMA       0.1130
      6 C6          2.1638  -18.0137    0.2161 C.3         1 MMA       0.0730
      7 C7         -0.0362  -22.0462   -3.2470 C.3         1 MMA       0.0395
      8 O1          0.4583  -20.8834   -2.5583 O.3         1 MMA      -0.3520
      9 O2         -2.0700  -20.0568   -0.0086 O.3         1 MMA      -0.3841
     10 O3         -2.5078  -17.8258   -1.6968 O.3         1 MMA      -0.3864
     11 O4          0.0047  -16.4634   -1.4064 O.3         1 MMA      -0.3865
     12 O5          0.8534  -19.9438   -0.3769 O.3         1 MMA      -0.3405
     13 O6          3.2807  -18.8827    0.3748 O.3         1 MMA      -0.3924
     14 H1         -0.2037  -21.6684   -0.7558 H           1 MMA       0.0937
     15 H2         -2.0735  -20.4992   -1.9984 H           1 MMA       0.0671
     16 H3         -0.9154  -18.4963   -2.7702 H           1 MMA       0.0648
     17 H4         -0.6082  -17.6439    0.1548 H           1 MMA       0.0647
     18 H5          1.5926  -18.5850   -1.7730 H           1 MMA       0.0647
     19 H6          1.6941  -17.8798    1.1961 H           1 MMA       0.0584
     20 H7          2.5308  -17.0413   -0.1190 H           1 MMA       0.0584
     21 H8          0.4057  -22.0654   -4.2420 H           1 MMA       0.0525
     22 H9         -1.1226  -22.0098   -3.3542 H           1 MMA       0.0525
     23 H10         0.2480  -22.9637   -2.7265 H           1 MMA       0.0525
     24 H11        -2.9641  -19.6738   -0.1403 H           1 MMA       0.2101
     25 H12        -2.3601  -16.9809   -2.1692 H           1 MMA       0.2100
     26 H13         0.5709  -15.9904   -0.7639 H           1 MMA       0.2100
     27 H14         3.7668  -18.8407   -0.4744 H           1 MMA       0.2095
@<TRIPOS>BOND
     1     1     2   1
     2     1     8   1
     3     1    12   1
     4     2     3   1
     5     2     9   1
     6     3     4   1
     7     3    10   1
     8     4     5   1
     9     4    11   1
    10     5     6   1
    11     5    12   1
    12     6    13   1
    13     8     7   1
    14     1    14   1
    15     2    15   1
    16     3    16   1
    17     4    17   1
    18     5    18   1
    19     6    19   1
    20     6    20   1
    21     7    21   1
    22     7    22   1
    23     7    23   1
    24     9    24   1
    25    10    25   1
    26    11    26   1
    27    13    27   1
@<TRIPOS>SUBSTRUCTURE
     1  MMA      1

