@<TRIPOS>MOLECULE
2obf_ligand_031
    41    43
SMALL
GAST_HUCK
****
This file was generated by PARSER (from files_GN.cpp)

@<TRIPOS>ATOM
      1 O1         26.9682   50.0071   17.1560 O.3         1 F83      -0.3893
      2 C1         26.5526   51.1369   16.3920 C.3         1 F83       0.0886
      3 C2         27.1933   52.4690   16.8669 C.3         1 F83       0.0107
      4 N1         28.6450   52.5300   16.5846 N.4         1 F83       0.2432
      5 C3         29.5218   51.6861   17.4246 C.3         1 F83      -0.0016
      6 C4         29.1137   51.6085   18.8521 C.ar        1 F83       0.0053
      7 C5         29.9600   50.9519   19.7708 C.ar        1 F83      -0.0347
      8 C6         29.6014   50.8471   21.1263 C.ar        1 F83       0.1007
      9 C7         28.3898   51.4057   21.5738 C.ar        1 F83      -0.0484
     10 C8         27.5356   52.0514   20.6678 C.ar        1 F83      -0.0646
     11 C9         27.8737   52.1439   19.2984 C.ar        1 F83      -0.0305
     12 C10        26.9409   52.8170   18.3586 C.3         1 F83       0.0239
     13 S1         30.5950   49.9555   22.2354 S.o2        1 F83       0.0850
     14 O2         30.7342   50.8093   23.5690 O.2         1 F83      -0.1456
     15 O3         32.0888   49.7471   21.7275 O.2         1 F83      -0.1456
     16 N2         29.8199   48.5258   22.6835 N.am        1 F83      -0.1875
     17 C11        29.6879   47.4115   21.9089 C.ar        1 F83       0.0630
     18 C12        28.5501   46.6027   22.1236 C.ar        1 F83      -0.0448
     19 C13        28.3242   45.4513   21.3457 C.ar        1 F83      -0.0639
     20 C14        29.2512   45.0792   20.3537 C.ar        1 F83       0.0218
     21 C15        30.4102   45.8541   20.1555 C.ar        1 F83      -0.0639
     22 C16        30.6240   47.0173   20.9216 C.ar        1 F83      -0.0448
     23 CL1        28.9707   43.7038   19.4028 Cl          1 F83      -0.0866
     24 H1         27.3111   49.3594   16.5026 H           1 F83       0.2097
     25 H2         25.4671   51.2072   16.4584 H           1 F83       0.0615
     26 H3         26.8139   50.9757   15.3453 H           1 F83       0.0615
     27 H4         26.7296   53.2575   16.2681 H           1 F83       0.0895
     28 H5         28.9347   53.5000   16.7085 H           1 F83       0.2032
     29 H6         28.7925   52.2792   15.6074 H           1 F83       0.2032
     30 H7         30.5289   52.1043   17.3570 H           1 F83       0.0964
     31 H8         29.5467   50.6796   17.0044 H           1 F83       0.0964
     32 H9         30.8399   50.5437   19.4436 H           1 F83       0.0559
     33 H10        28.1146   51.3350   22.5558 H           1 F83       0.0561
     34 H11        26.6535   52.4405   21.0123 H           1 F83       0.0538
     35 H12        25.9013   52.5773   18.6049 H           1 F83       0.0467
     36 H13        27.0653   53.8936   18.4866 H           1 F83       0.0467
     37 H14        29.1696   48.6292   23.3942 H           1 F83       0.2165
     38 H15        27.8626   46.8556   22.8425 H           1 F83       0.0483
     39 H16        27.4811   44.8926   21.5058 H           1 F83       0.0579
     40 H17        31.0958   45.5851   19.4451 H           1 F83       0.0579
     41 H18        31.4679   47.5677   20.7556 H           1 F83       0.0483
@<TRIPOS>BOND
     1     1     2   1
     2     2     3   1
     3     3     4   1
     4     3    12   1
     5     4     5   1
     6     5     6   1
     7     6     7  ar
     8     6    11  ar
     9     7     8  ar
    10     8     9  ar
    11     8    13   1
    12     9    10  ar
    13    10    11  ar
    14    11    12   1
    15    13    14   2
    16    13    15   2
    17    13    16  am
    18    16    17   1
    19    17    18  ar
    20    17    22  ar
    21    18    19  ar
    22    19    20  ar
    23    20    21  ar
    24    20    23   1
    25    21    22  ar
    26     1    24   1
    27     2    25   1
    28     2    26   1
    29     3    27   1
    30     4    28   1
    31     4    29   1
    32     5    30   1
    33     5    31   1
    34     7    32   1
    35     9    33   1
    36    10    34   1
    37    12    35   1
    38    12    36   1
    39    16    37   1
    40    18    38   1
    41    19    39   1
    42    21    40   1
    43    22    41   1
@<TRIPOS>SUBSTRUCTURE
     1  F83      2

