@<TRIPOS>MOLECULE
2obf_ligand_017
    41    43
SMALL
GAST_HUCK
****
This file was generated by PARSER (from files_GN.cpp)

@<TRIPOS>ATOM
      1 O1         24.3665   44.3842   14.3179 O.3         1 F83      -0.3893
      2 C1         25.2736   43.3205   14.5909 C.3         1 F83       0.0886
      3 C2         26.5495   43.4376   13.7119 C.3         1 F83       0.0107
      4 N1         27.3948   42.2242   13.8002 N.4         1 F83       0.2432
      5 C3         28.0579   41.9995   15.1076 C.3         1 F83      -0.0016
      6 C4         28.6043   43.2277   15.7441 C.ar        1 F83       0.0053
      7 C5         29.4226   43.1120   16.8922 C.ar        1 F83      -0.0347
      8 C6         29.9944   44.2525   17.4930 C.ar        1 F83       0.1007
      9 C7         29.7153   45.5228   16.9530 C.ar        1 F83      -0.0484
     10 C8         28.8754   45.6520   15.8339 C.ar        1 F83      -0.0646
     11 C9         28.3008   44.5146   15.2261 C.ar        1 F83      -0.0305
     12 C10        27.4249   44.6851   14.0331 C.3         1 F83       0.0239
     13 S1         31.0706   44.0910   18.8559 S.o2        1 F83       0.0850
     14 O2         31.9693   45.3847   19.0758 O.2         1 F83      -0.1456
     15 O3         32.1581   42.9802   18.5189 O.2         1 F83      -0.1456
     16 N2         30.3059   43.6094   20.2788 N.am        1 F83      -0.1875
     17 C11        29.5568   44.4626   21.0199 C.ar        1 F83       0.0630
     18 C12        30.0875   45.6391   21.5950 C.ar        1 F83      -0.0448
     19 C13        29.2917   46.4568   22.4174 C.ar        1 F83      -0.0639
     20 C14        27.9507   46.1082   22.6662 C.ar        1 F83       0.0218
     21 C15        27.4107   44.9442   22.0910 C.ar        1 F83      -0.0639
     22 C16        28.2157   44.1165   21.2869 C.ar        1 F83      -0.0448
     23 CL1        26.9942   47.0577   23.6863 Cl          1 F83      -0.0866
     24 H1         23.6030   44.2271   14.9120 H           1 F83       0.2097
     25 H2         24.7669   42.3761   14.3815 H           1 F83       0.0615
     26 H3         25.5323   43.3417   15.6506 H           1 F83       0.0615
     27 H4         26.2162   43.5143   12.6722 H           1 F83       0.0895
     28 H5         28.1258   42.3044   13.0883 H           1 F83       0.2032
     29 H6         26.8241   41.4059   13.5746 H           1 F83       0.2032
     30 H7         28.8700   41.2909   14.9314 H           1 F83       0.0964
     31 H8         27.3468   41.5347   15.7937 H           1 F83       0.0964
     32 H9         29.6202   42.1865   17.2797 H           1 F83       0.0559
     33 H10        30.1272   46.3624   17.3611 H           1 F83       0.0561
     34 H11        28.6870   46.5854   15.4632 H           1 F83       0.0538
     35 H12        26.7743   45.5542   14.1672 H           1 F83       0.0467
     36 H13        28.0735   44.8928   13.1776 H           1 F83       0.0467
     37 H14        30.0869   42.6671   20.3591 H           1 F83       0.2165
     38 H15        31.0639   45.8934   21.4473 H           1 F83       0.0483
     39 H16        29.6984   47.2949   22.8392 H           1 F83       0.0579
     40 H17        26.4357   44.6964   22.2679 H           1 F83       0.0579
     41 H18        27.8136   43.2672   20.8835 H           1 F83       0.0483
@<TRIPOS>BOND
     1     1     2   1
     2     2     3   1
     3     3     4   1
     4     3    12   1
     5     4     5   1
     6     5     6   1
     7     6     7  ar
     8     6    11  ar
     9     7     8  ar
    10     8     9  ar
    11     8    13   1
    12     9    10  ar
    13    10    11  ar
    14    11    12   1
    15    13    14   2
    16    13    15   2
    17    13    16  am
    18    16    17   1
    19    17    18  ar
    20    17    22  ar
    21    18    19  ar
    22    19    20  ar
    23    20    21  ar
    24    20    23   1
    25    21    22  ar
    26     1    24   1
    27     2    25   1
    28     2    26   1
    29     3    27   1
    30     4    28   1
    31     4    29   1
    32     5    30   1
    33     5    31   1
    34     7    32   1
    35     9    33   1
    36    10    34   1
    37    12    35   1
    38    12    36   1
    39    16    37   1
    40    18    38   1
    41    19    39   1
    42    21    40   1
    43    22    41   1
@<TRIPOS>SUBSTRUCTURE
     1  F83      2

