@<TRIPOS>MOLECULE
2obf_ligand_015
    41    43
SMALL
GAST_HUCK
****
This file was generated by PARSER (from files_GN.cpp)

@<TRIPOS>ATOM
      1 O1         30.1707   42.5654   14.0885 O.3         1 F83      -0.3893
      2 C1         29.1236   43.2032   13.3619 C.3         1 F83       0.0886
      3 C2         27.7491   43.2665   14.1096 C.3         1 F83       0.0107
      4 N1         27.2669   44.6563   14.3011 N.4         1 F83       0.2432
      5 C3         28.0323   45.4650   15.2779 C.3         1 F83      -0.0016
      6 C4         28.3899   44.7337   16.5208 C.ar        1 F83       0.0053
      7 C5         28.9109   45.4542   17.6175 C.ar        1 F83      -0.0347
      8 C6         29.2816   44.7973   18.8081 C.ar        1 F83       0.1007
      9 C7         29.1129   43.4012   18.9030 C.ar        1 F83      -0.0484
     10 C8         28.5972   42.6723   17.8166 C.ar        1 F83      -0.0646
     11 C9         28.2466   43.3231   16.6123 C.ar        1 F83      -0.0305
     12 C10        27.6846   42.5320   15.4836 C.3         1 F83       0.0239
     13 S1         29.9579   45.7118   20.1280 S.o2        1 F83       0.0850
     14 O2         31.1782   46.5069   19.4911 O.2         1 F83      -0.1456
     15 O3         30.5961   44.8079   21.2690 O.2         1 F83      -0.1456
     16 N2         28.8796   46.8438   20.7608 N.am        1 F83      -0.1875
     17 C11        29.3098   48.0269   21.2595 C.ar        1 F83       0.0630
     18 C12        29.9521   48.0811   22.5136 C.ar        1 F83      -0.0448
     19 C13        30.3698   49.3135   23.0491 C.ar        1 F83      -0.0639
     20 C14        30.1420   50.5069   22.3369 C.ar        1 F83       0.0218
     21 C15        29.4837   50.4613   21.0923 C.ar        1 F83      -0.0639
     22 C16        29.0652   49.2274   20.5589 C.ar        1 F83      -0.0448
     23 CL1        30.6570   51.9868   22.9766 Cl          1 F83      -0.0866
     24 H1         30.5634   43.2444   14.6669 H           1 F83       0.2097
     25 H2         29.0061   42.6503   12.4273 H           1 F83       0.0615
     26 H3         29.4707   44.2026   13.0993 H           1 F83       0.0615
     27 H4         27.0104   42.7863   13.4599 H           1 F83       0.0895
     28 H5         26.3012   44.6038   14.6328 H           1 F83       0.2032
     29 H6         27.2668   45.1405   13.4000 H           1 F83       0.2032
     30 H7         27.4141   46.3267   15.5287 H           1 F83       0.0964
     31 H8         28.9454   45.8388   14.8095 H           1 F83       0.0964
     32 H9         29.0182   46.4691   17.5453 H           1 F83       0.0559
     33 H10        29.3652   42.9035   19.7599 H           1 F83       0.0561
     34 H11        28.4861   41.6586   17.9080 H           1 F83       0.0538
     35 H12        28.1977   41.5697   15.3988 H           1 F83       0.0467
     36 H13        26.6395   42.3191   15.7265 H           1 F83       0.0467
     37 H14        28.0335   46.5042   21.0950 H           1 F83       0.2165
     38 H15        30.1156   47.2217   23.0422 H           1 F83       0.0483
     39 H16        30.8435   49.3340   23.9563 H           1 F83       0.0579
     40 H17        29.3042   51.3233   20.5719 H           1 F83       0.0579
     41 H18        28.5807   49.2112   19.6585 H           1 F83       0.0483
@<TRIPOS>BOND
     1     1     2   1
     2     2     3   1
     3     3     4   1
     4     3    12   1
     5     4     5   1
     6     5     6   1
     7     6     7  ar
     8     6    11  ar
     9     7     8  ar
    10     8     9  ar
    11     8    13   1
    12     9    10  ar
    13    10    11  ar
    14    11    12   1
    15    13    14   2
    16    13    15   2
    17    13    16  am
    18    16    17   1
    19    17    18  ar
    20    17    22  ar
    21    18    19  ar
    22    19    20  ar
    23    20    21  ar
    24    20    23   1
    25    21    22  ar
    26     1    24   1
    27     2    25   1
    28     2    26   1
    29     3    27   1
    30     4    28   1
    31     4    29   1
    32     5    30   1
    33     5    31   1
    34     7    32   1
    35     9    33   1
    36    10    34   1
    37    12    35   1
    38    12    36   1
    39    16    37   1
    40    18    38   1
    41    19    39   1
    42    21    40   1
    43    22    41   1
@<TRIPOS>SUBSTRUCTURE
     1  F83      2

