@<TRIPOS>MOLECULE
2obf_ligand_033
    41    43
SMALL
GAST_HUCK
****
This file was generated by PARSER (from files_GN.cpp)

@<TRIPOS>ATOM
      1 O1         28.2679   45.2587   11.4165 O.3         1 F83      -0.3893
      2 C1         27.3317   44.3192   10.8941 C.3         1 F83       0.0886
      3 C2         26.2480   43.8982   11.9217 C.3         1 F83       0.0107
      4 N1         25.5897   45.0388   12.6001 N.4         1 F83       0.2432
      5 C3         26.3547   45.7173   13.6772 C.3         1 F83      -0.0016
      6 C4         27.2701   44.8375   14.4561 C.ar        1 F83       0.0053
      7 C5         27.9844   45.3813   15.5430 C.ar        1 F83      -0.0347
      8 C6         28.8504   44.5779   16.3151 C.ar        1 F83       0.1007
      9 C7         29.0179   43.2181   15.9910 C.ar        1 F83      -0.0484
     10 C8         28.3284   42.6723   14.8951 C.ar        1 F83      -0.0646
     11 C9         27.4645   43.4731   14.1155 C.ar        1 F83      -0.0305
     12 C10        26.7376   42.8584   12.9781 C.3         1 F83       0.0239
     13 S1         29.6637   45.2758   17.6730 S.o2        1 F83       0.0850
     14 O2         30.6494   46.3827   17.0944 O.2         1 F83      -0.1456
     15 O3         30.6212   44.2594   18.4422 O.2         1 F83      -0.1456
     16 N2         28.6326   46.0967   18.7208 N.am        1 F83      -0.1875
     17 C11        28.6893   45.8501   20.0460 C.ar        1 F83       0.0630
     18 C12        29.3535   46.7661   20.8862 C.ar        1 F83      -0.0448
     19 C13        29.3889   46.5566   22.2742 C.ar        1 F83      -0.0639
     20 C14        28.7306   45.4468   22.8337 C.ar        1 F83       0.0218
     21 C15        28.0681   44.5272   21.9969 C.ar        1 F83      -0.0639
     22 C16        28.0500   44.7227   20.6051 C.ar        1 F83      -0.0448
     23 CL1        28.7220   45.2091   24.5069 Cl          1 F83      -0.0866
     24 H1         28.8713   45.4784   10.6576 H           1 F83       0.2097
     25 H2         27.8889   43.4412   10.5527 H           1 F83       0.0615
     26 H3         26.8575   44.7693   10.0248 H           1 F83       0.0615
     27 H4         25.4615   43.4116   11.3426 H           1 F83       0.0895
     28 H5         24.7307   44.6825   13.0261 H           1 F83       0.2032
     29 H6         25.3235   45.7353   11.8970 H           1 F83       0.2032
     30 H7         25.6187   46.1645   14.3478 H           1 F83       0.0964
     31 H8         26.9264   46.5324   13.2391 H           1 F83       0.0964
     32 H9         27.8632   46.3662   15.7824 H           1 F83       0.0559
     33 H10        29.6256   42.6189   16.5495 H           1 F83       0.0561
     34 H11        28.4634   41.6780   14.6766 H           1 F83       0.0538
     35 H12        27.3700   42.1178   12.4891 H           1 F83       0.0467
     36 H13        25.8767   42.3298   13.3944 H           1 F83       0.0467
     37 H14        28.4253   47.0084   18.4594 H           1 F83       0.2165
     38 H15        29.8302   47.5791   20.4883 H           1 F83       0.0483
     39 H16        29.8904   47.2207   22.8700 H           1 F83       0.0579
     40 H17        27.5979   43.7188   22.4012 H           1 F83       0.0579
     41 H18        27.5534   44.0557   20.0117 H           1 F83       0.0483
@<TRIPOS>BOND
     1     1     2   1
     2     2     3   1
     3     3     4   1
     4     3    12   1
     5     4     5   1
     6     5     6   1
     7     6     7  ar
     8     6    11  ar
     9     7     8  ar
    10     8     9  ar
    11     8    13   1
    12     9    10  ar
    13    10    11  ar
    14    11    12   1
    15    13    14   2
    16    13    15   2
    17    13    16  am
    18    16    17   1
    19    17    18  ar
    20    17    22  ar
    21    18    19  ar
    22    19    20  ar
    23    20    21  ar
    24    20    23   1
    25    21    22  ar
    26     1    24   1
    27     2    25   1
    28     2    26   1
    29     3    27   1
    30     4    28   1
    31     4    29   1
    32     5    30   1
    33     5    31   1
    34     7    32   1
    35     9    33   1
    36    10    34   1
    37    12    35   1
    38    12    36   1
    39    16    37   1
    40    18    38   1
    41    19    39   1
    42    21    40   1
    43    22    41   1
@<TRIPOS>SUBSTRUCTURE
     1  F83      2

