@<TRIPOS>MOLECULE
2obf_ligand_008
    41    43
SMALL
GAST_HUCK
****
This file was generated by PARSER (from files_GN.cpp)

@<TRIPOS>ATOM
      1 O1         27.5055   49.8222   18.2216 O.3         1 F83      -0.3893
      2 C1         27.0205   50.4359   17.0245 C.3         1 F83       0.0886
      3 C2         27.1986   51.9791   17.0108 C.3         1 F83       0.0107
      4 N1         28.5622   52.4053   16.6208 N.4         1 F83       0.2432
      5 C3         29.6314   52.1345   17.6156 C.3         1 F83      -0.0016
      6 C4         29.2424   52.3556   19.0380 C.ar        1 F83       0.0053
      7 C5         30.2187   52.2753   20.0529 C.ar        1 F83      -0.0347
      8 C6         29.8600   52.4168   21.4049 C.ar        1 F83       0.1007
      9 C7         28.5111   52.6064   21.7533 C.ar        1 F83      -0.0484
     10 C8         27.5287   52.6742   20.7523 C.ar        1 F83      -0.0646
     11 C9         27.8789   52.5574   19.3883 C.ar        1 F83      -0.0305
     12 C10        26.8374   52.7113   18.3315 C.3         1 F83       0.0239
     13 S1         31.0758   52.4066   22.6518 S.o2        1 F83       0.0850
     14 O2         32.4488   51.8045   22.1132 O.2         1 F83      -0.1456
     15 O3         30.5551   51.5040   23.8570 O.2         1 F83      -0.1456
     16 N2         31.2803   53.9881   23.1944 N.am        1 F83      -0.1875
     17 C11        31.3320   54.2614   24.5199 C.ar        1 F83       0.0630
     18 C12        32.5610   54.2979   25.2109 C.ar        1 F83      -0.0448
     19 C13        32.5908   54.5674   26.5939 C.ar        1 F83      -0.0639
     20 C14        31.3867   54.7811   27.2965 C.ar        1 F83       0.0218
     21 C15        30.1567   54.7280   26.6092 C.ar        1 F83      -0.0639
     22 C16        30.1307   54.4765   25.2251 C.ar        1 F83      -0.0448
     23 CL1        31.4112   55.1155   28.9521 Cl          1 F83      -0.0866
     24 H1         28.3182   49.3155   17.9582 H           1 F83       0.2097
     25 H2         25.9650   50.1782   16.9403 H           1 F83       0.0615
     26 H3         27.5523   50.0037   16.1671 H           1 F83       0.0615
     27 H4         26.5307   52.3561   16.2328 H           1 F83       0.0895
     28 H5         28.5381   53.4121   16.4764 H           1 F83       0.2032
     29 H6         28.8101   51.9610   15.7395 H           1 F83       0.2032
     30 H7         30.4755   52.7871   17.3606 H           1 F83       0.0964
     31 H8         29.9601   51.0963   17.4962 H           1 F83       0.0964
     32 H9         31.2002   52.1357   19.8017 H           1 F83       0.0559
     33 H10        28.2295   52.7210   22.7318 H           1 F83       0.0561
     34 H11        26.5506   52.8213   21.0236 H           1 F83       0.0538
     35 H12        25.8629   52.3664   18.6775 H           1 F83       0.0467
     36 H13        26.7517   53.7841   18.1227 H           1 F83       0.0467
     37 H14        30.8904   54.6737   22.6271 H           1 F83       0.2165
     38 H15        33.4434   54.1467   24.7182 H           1 F83       0.0483
     39 H16        33.4848   54.5992   27.0921 H           1 F83       0.0579
     40 H17        29.2699   54.8600   27.1071 H           1 F83       0.0579
     41 H18        29.2355   54.4218   24.7368 H           1 F83       0.0483
@<TRIPOS>BOND
     1     1     2   1
     2     2     3   1
     3     3     4   1
     4     3    12   1
     5     4     5   1
     6     5     6   1
     7     6     7  ar
     8     6    11  ar
     9     7     8  ar
    10     8     9  ar
    11     8    13   1
    12     9    10  ar
    13    10    11  ar
    14    11    12   1
    15    13    14   2
    16    13    15   2
    17    13    16  am
    18    16    17   1
    19    17    18  ar
    20    17    22  ar
    21    18    19  ar
    22    19    20  ar
    23    20    21  ar
    24    20    23   1
    25    21    22  ar
    26     1    24   1
    27     2    25   1
    28     2    26   1
    29     3    27   1
    30     4    28   1
    31     4    29   1
    32     5    30   1
    33     5    31   1
    34     7    32   1
    35     9    33   1
    36    10    34   1
    37    12    35   1
    38    12    36   1
    39    16    37   1
    40    18    38   1
    41    19    39   1
    42    21    40   1
    43    22    41   1
@<TRIPOS>SUBSTRUCTURE
     1  F83      2

