@<TRIPOS>MOLECULE
2obf_ligand_010
    41    43
SMALL
GAST_HUCK
****
This file was generated by PARSER (from files_GN.cpp)

@<TRIPOS>ATOM
      1 O1         29.6255   42.7793   13.6764 O.3         1 F83      -0.3893
      2 C1         28.4094   42.2737   13.1406 C.3         1 F83       0.0886
      3 C2         27.1472   43.0879   13.5566 C.3         1 F83       0.0107
      4 N1         27.3566   44.5534   13.5780 N.4         1 F83       0.2432
      5 C3         28.0445   45.1271   14.7620 C.3         1 F83      -0.0016
      6 C4         27.8025   44.4340   16.0581 C.ar        1 F83       0.0053
      7 C5         28.2986   45.0013   17.2555 C.ar        1 F83      -0.0347
      8 C6         28.0614   44.3845   18.5038 C.ar        1 F83       0.1007
      9 C7         27.3502   43.1705   18.5429 C.ar        1 F83      -0.0484
     10 C8         26.8606   42.5923   17.3617 C.ar        1 F83      -0.0646
     11 C9         27.0852   43.2117   16.1112 C.ar        1 F83      -0.0305
     12 C10        26.4873   42.6148   14.8878 C.3         1 F83       0.0239
     13 S1         28.6089   45.1072   19.9961 S.o2        1 F83       0.0850
     14 O2         27.4024   45.0625   21.0316 O.2         1 F83      -0.1456
     15 O3         28.9683   46.6449   19.8486 O.2         1 F83      -0.1456
     16 N2         29.8493   44.2250   20.7256 N.am        1 F83      -0.1875
     17 C11        31.0718   44.0991   20.1488 C.ar        1 F83       0.0630
     18 C12        31.5604   42.8002   19.8979 C.ar        1 F83      -0.0448
     19 C13        32.8241   42.6126   19.3013 C.ar        1 F83      -0.0639
     20 C14        33.6268   43.7234   18.9909 C.ar        1 F83       0.0218
     21 C15        33.1609   45.0213   19.2692 C.ar        1 F83      -0.0639
     22 C16        31.8828   45.2056   19.8326 C.ar        1 F83      -0.0448
     23 CL1        35.1400   43.4977   18.2663 Cl          1 F83      -0.0866
     24 H1         29.9160   43.4585   13.0341 H           1 F83       0.2097
     25 H2         28.3009   41.2359   13.4573 H           1 F83       0.0615
     26 H3         28.4966   42.2692   12.0492 H           1 F83       0.0615
     27 H4         26.4095   42.9057   12.7693 H           1 F83       0.0895
     28 H5         26.4357   44.9893   13.5207 H           1 F83       0.2032
     29 H6         27.8781   44.8227   12.7377 H           1 F83       0.2032
     30 H7         27.6992   46.1620   14.8528 H           1 F83       0.0964
     31 H8         29.1182   45.1478   14.5669 H           1 F83       0.0964
     32 H9         28.8241   45.8791   17.2198 H           1 F83       0.0559
     33 H10        27.1716   42.7024   19.4377 H           1 F83       0.0561
     34 H11        26.3326   41.7176   17.4202 H           1 F83       0.0538
     35 H12        26.5239   41.5251   14.9373 H           1 F83       0.0467
     36 H13        25.4322   42.9032   14.8793 H           1 F83       0.0467
     37 H14        29.5771   43.5184   21.3340 H           1 F83       0.2165
     38 H15        30.9950   41.9864   20.1472 H           1 F83       0.0483
     39 H16        33.1558   41.6677   19.1010 H           1 F83       0.0579
     40 H17        33.7501   45.8339   19.0820 H           1 F83       0.0579
     41 H18        31.5731   46.1560   20.0494 H           1 F83       0.0483
@<TRIPOS>BOND
     1     1     2   1
     2     2     3   1
     3     3     4   1
     4     3    12   1
     5     4     5   1
     6     5     6   1
     7     6     7  ar
     8     6    11  ar
     9     7     8  ar
    10     8     9  ar
    11     8    13   1
    12     9    10  ar
    13    10    11  ar
    14    11    12   1
    15    13    14   2
    16    13    15   2
    17    13    16  am
    18    16    17   1
    19    17    18  ar
    20    17    22  ar
    21    18    19  ar
    22    19    20  ar
    23    20    21  ar
    24    20    23   1
    25    21    22  ar
    26     1    24   1
    27     2    25   1
    28     2    26   1
    29     3    27   1
    30     4    28   1
    31     4    29   1
    32     5    30   1
    33     5    31   1
    34     7    32   1
    35     9    33   1
    36    10    34   1
    37    12    35   1
    38    12    36   1
    39    16    37   1
    40    18    38   1
    41    19    39   1
    42    21    40   1
    43    22    41   1
@<TRIPOS>SUBSTRUCTURE
     1  F83      2

