@<TRIPOS>MOLECULE
2obf_ligand_028
    41    43
SMALL
GAST_HUCK
****
This file was generated by PARSER (from files_GN.cpp)

@<TRIPOS>ATOM
      1 O1         29.4052   52.1570   20.5597 O.3         1 F83      -0.3893
      2 C1         28.9352   51.0222   21.2877 C.3         1 F83       0.0886
      3 C2         29.9667   50.5656   22.3580 C.3         1 F83       0.0107
      4 N1         31.3468   50.4353   21.8401 N.4         1 F83       0.2432
      5 C3         31.5457   49.3686   20.8376 C.3         1 F83      -0.0016
      6 C4         30.8526   48.0895   21.1586 C.ar        1 F83       0.0053
      7 C5         31.1397   46.9331   20.4021 C.ar        1 F83      -0.0347
      8 C6         30.4504   45.7235   20.6172 C.ar        1 F83       0.1007
      9 C7         29.5003   45.6554   21.6541 C.ar        1 F83      -0.0484
     10 C8         29.2263   46.7904   22.4375 C.ar        1 F83      -0.0646
     11 C9         29.8811   48.0195   22.1907 C.ar        1 F83      -0.0305
     12 C10        29.5879   49.2161   23.0275 C.3         1 F83       0.0239
     13 S1         30.7510   44.3600   19.5717 S.o2        1 F83       0.0850
     14 O2         32.1347   43.6621   19.9218 O.2         1 F83      -0.1456
     15 O3         30.9623   44.9776   18.1197 O.2         1 F83      -0.1456
     16 N2         29.5179   43.2063   19.5459 N.am        1 F83      -0.1875
     17 C11        28.7380   42.9299   18.4679 C.ar        1 F83       0.0630
     18 C12        29.2745   42.6844   17.1865 C.ar        1 F83      -0.0448
     19 C13        28.4329   42.4206   16.0882 C.ar        1 F83      -0.0639
     20 C14        27.0384   42.3694   16.2666 C.ar        1 F83       0.0218
     21 C15        26.4960   42.5599   17.5512 C.ar        1 F83      -0.0639
     22 C16        27.3421   42.8320   18.6454 C.ar        1 F83      -0.0448
     23 CL1        26.0302   42.0727   14.9439 Cl          1 F83      -0.0866
     24 H1         29.5525   52.8578   21.2315 H           1 F83       0.2097
     25 H2         28.7372   50.2197   20.5692 H           1 F83       0.0615
     26 H3         27.9886   51.2838   21.7717 H           1 F83       0.0615
     27 H4         29.9911   51.3334   23.1339 H           1 F83       0.0895
     28 H5         31.9511   50.1896   22.6247 H           1 F83       0.2032
     29 H6         31.6560   51.3283   21.4481 H           1 F83       0.2032
     30 H7         32.6213   49.1943   20.7736 H           1 F83       0.0964
     31 H8         31.2005   49.7326   19.8696 H           1 F83       0.0964
     32 H9         31.8480   46.9757   19.6687 H           1 F83       0.0559
     33 H10        28.9889   44.7890   21.8352 H           1 F83       0.0561
     34 H11        28.5277   46.7169   23.1800 H           1 F83       0.0538
     35 H12        28.5309   49.2456   23.2996 H           1 F83       0.0467
     36 H13        30.1625   49.1155   23.9511 H           1 F83       0.0467
     37 H14        29.2074   42.8849   20.4109 H           1 F83       0.2165
     38 H15        30.2848   42.6849   17.0497 H           1 F83       0.0483
     39 H16        28.8412   42.2573   15.1633 H           1 F83       0.0579
     40 H17        25.4830   42.5095   17.6968 H           1 F83       0.0579
     41 H18        26.9264   42.9823   19.5685 H           1 F83       0.0483
@<TRIPOS>BOND
     1     1     2   1
     2     2     3   1
     3     3     4   1
     4     3    12   1
     5     4     5   1
     6     5     6   1
     7     6     7  ar
     8     6    11  ar
     9     7     8  ar
    10     8     9  ar
    11     8    13   1
    12     9    10  ar
    13    10    11  ar
    14    11    12   1
    15    13    14   2
    16    13    15   2
    17    13    16  am
    18    16    17   1
    19    17    18  ar
    20    17    22  ar
    21    18    19  ar
    22    19    20  ar
    23    20    21  ar
    24    20    23   1
    25    21    22  ar
    26     1    24   1
    27     2    25   1
    28     2    26   1
    29     3    27   1
    30     4    28   1
    31     4    29   1
    32     5    30   1
    33     5    31   1
    34     7    32   1
    35     9    33   1
    36    10    34   1
    37    12    35   1
    38    12    36   1
    39    16    37   1
    40    18    38   1
    41    19    39   1
    42    21    40   1
    43    22    41   1
@<TRIPOS>SUBSTRUCTURE
     1  F83      2

