@<TRIPOS>MOLECULE
2obf_ligand_032
    41    43
SMALL
GAST_HUCK
****
This file was generated by PARSER (from files_GN.cpp)

@<TRIPOS>ATOM
      1 O1         28.5688   43.2371   12.4707 O.3         1 F83      -0.3893
      2 C1         27.7376   44.1546   11.7530 C.3         1 F83       0.0886
      3 C2         26.4608   44.5703   12.5386 C.3         1 F83       0.0107
      4 N1         26.6739   45.7381   13.4264 N.4         1 F83       0.2432
      5 C3         27.6070   45.4994   14.5524 C.3         1 F83      -0.0016
      6 C4         27.3814   44.2050   15.2438 C.ar        1 F83       0.0053
      7 C5         28.0751   43.9403   16.4437 C.ar        1 F83      -0.0347
      8 C6         27.8906   42.7133   17.1132 C.ar        1 F83       0.1007
      9 C7         27.0044   41.7512   16.5983 C.ar        1 F83      -0.0484
     10 C8         26.3148   42.0061   15.4016 C.ar        1 F83      -0.0646
     11 C9         26.5197   43.2173   14.6973 C.ar        1 F83      -0.0305
     12 C10        25.8298   43.4362   13.4003 C.3         1 F83       0.0239
     13 S1         28.7889   42.3971   18.5705 S.o2        1 F83       0.0850
     14 O2         30.0010   41.4664   18.1418 O.2         1 F83      -0.1456
     15 O3         27.9710   41.5066   19.6140 O.2         1 F83      -0.1456
     16 N2         29.4976   43.7178   19.3318 N.am        1 F83      -0.1875
     17 C11        28.9292   44.4697   20.3171 C.ar        1 F83       0.0630
     18 C12        27.5315   44.5374   20.5508 C.ar        1 F83      -0.0448
     19 C13        27.0277   45.2767   21.6370 C.ar        1 F83      -0.0639
     20 C14        27.9043   45.9377   22.5058 C.ar        1 F83       0.0218
     21 C15        29.2913   45.9221   22.2536 C.ar        1 F83      -0.0639
     22 C16        29.8010   45.1948   21.1613 C.ar        1 F83      -0.0448
     23 CL1        27.2813   46.7503   23.8492 Cl          1 F83      -0.0866
     24 H1         29.4683   43.3310   12.0667 H           1 F83       0.2097
     25 H2         27.4587   43.6470   10.8302 H           1 F83       0.0615
     26 H3         28.3124   45.0478   11.4917 H           1 F83       0.0615
     27 H4         25.7215   44.8752   11.8000 H           1 F83       0.0895
     28 H5         25.7664   45.9988   13.8227 H           1 F83       0.2032
     29 H6         27.0194   46.5162   12.8701 H           1 F83       0.2032
     30 H7         27.4729   46.3194   15.2658 H           1 F83       0.0964
     31 H8         28.6397   45.5394   14.1876 H           1 F83       0.0964
     32 H9         28.7266   44.6294   16.8140 H           1 F83       0.0559
     33 H10        26.8706   40.8458   17.0735 H           1 F83       0.0561
     34 H11        25.6822   41.3020   15.0321 H           1 F83       0.0538
     35 H12        25.8422   42.5082   12.8161 H           1 F83       0.0467
     36 H13        24.7787   43.6798   13.6106 H           1 F83       0.0467
     37 H14        30.4427   43.8595   19.1507 H           1 F83       0.2165
     38 H15        26.8642   44.0618   19.9428 H           1 F83       0.0483
     39 H16        26.0123   45.3065   21.7914 H           1 F83       0.0579
     40 H17        29.9322   46.4200   22.8700 H           1 F83       0.0579
     41 H18        30.8217   45.1781   21.0014 H           1 F83       0.0483
@<TRIPOS>BOND
     1     1     2   1
     2     2     3   1
     3     3     4   1
     4     3    12   1
     5     4     5   1
     6     5     6   1
     7     6     7  ar
     8     6    11  ar
     9     7     8  ar
    10     8     9  ar
    11     8    13   1
    12     9    10  ar
    13    10    11  ar
    14    11    12   1
    15    13    14   2
    16    13    15   2
    17    13    16  am
    18    16    17   1
    19    17    18  ar
    20    17    22  ar
    21    18    19  ar
    22    19    20  ar
    23    20    21  ar
    24    20    23   1
    25    21    22  ar
    26     1    24   1
    27     2    25   1
    28     2    26   1
    29     3    27   1
    30     4    28   1
    31     4    29   1
    32     5    30   1
    33     5    31   1
    34     7    32   1
    35     9    33   1
    36    10    34   1
    37    12    35   1
    38    12    36   1
    39    16    37   1
    40    18    38   1
    41    19    39   1
    42    21    40   1
    43    22    41   1
@<TRIPOS>SUBSTRUCTURE
     1  F83      2

