@<TRIPOS>MOLECULE
2obf_ligand_025
    41    43
SMALL
GAST_HUCK
****
This file was generated by PARSER (from files_GN.cpp)

@<TRIPOS>ATOM
      1 O1         24.1500   45.5565   10.5114 O.3         1 F83      -0.3893
      2 C1         24.2356   46.5003   11.5853 C.3         1 F83       0.0886
      3 C2         25.0070   45.9338   12.8010 C.3         1 F83       0.0107
      4 N1         26.4674   46.0963   12.6052 N.4         1 F83       0.2432
      5 C3         27.2568   45.7565   13.8165 C.3         1 F83      -0.0016
      6 C4         26.8550   44.4832   14.4571 C.ar        1 F83       0.0053
      7 C5         27.6807   43.9313   15.4632 C.ar        1 F83      -0.0347
      8 C6         27.3249   42.7171   16.0835 C.ar        1 F83       0.1007
      9 C7         26.1636   42.0381   15.6675 C.ar        1 F83      -0.0484
     10 C8         25.3256   42.6038   14.6920 C.ar        1 F83      -0.0646
     11 C9         25.6398   43.8407   14.0941 C.ar        1 F83      -0.0305
     12 C10        24.7059   44.4356   13.1034 C.3         1 F83       0.0239
     13 S1         28.2922   42.0344   17.3634 S.o2        1 F83       0.0850
     14 O2         28.7642   40.5840   16.9006 O.2         1 F83      -0.1456
     15 O3         27.3868   41.7042   18.6333 O.2         1 F83      -0.1456
     16 N2         29.6832   42.8559   17.8521 N.am        1 F83      -0.1875
     17 C11        29.6006   43.7682   18.8553 C.ar        1 F83       0.0630
     18 C12        30.0975   43.4373   20.1326 C.ar        1 F83      -0.0448
     19 C13        29.9558   44.3396   21.2014 C.ar        1 F83      -0.0639
     20 C14        29.3806   45.6064   20.9823 C.ar        1 F83       0.0218
     21 C15        28.9081   45.9489   19.7048 C.ar        1 F83      -0.0639
     22 C16        28.9996   45.0294   18.6423 C.ar        1 F83      -0.0448
     23 CL1        29.2409   46.6963   22.2596 Cl          1 F83      -0.0866
     24 H1         23.4764   45.9288    9.9012 H           1 F83       0.2097
     25 H2         23.2213   46.7688   11.8988 H           1 F83       0.0615
     26 H3         24.7264   47.4079   11.2199 H           1 F83       0.0615
     27 H4         24.7082   46.5423   13.6637 H           1 F83       0.0895
     28 H5         26.6598   47.0716   12.3391 H           1 F83       0.2032
     29 H6         26.7668   45.4867   11.8352 H           1 F83       0.2032
     30 H7         27.1457   46.5628   14.5450 H           1 F83       0.0964
     31 H8         28.3060   45.7066   13.5100 H           1 F83       0.0964
     32 H9         28.5358   44.4085   15.7449 H           1 F83       0.0559
     33 H10        25.9153   41.1405   16.0867 H           1 F83       0.0561
     34 H11        24.4752   42.1104   14.4325 H           1 F83       0.0538
     35 H12        24.7693   43.8595   12.1772 H           1 F83       0.0467
     36 H13        23.6830   44.3747   13.4753 H           1 F83       0.0467
     37 H14        30.5219   42.3542   17.7936 H           1 F83       0.2165
     38 H15        30.5195   42.5194   20.2937 H           1 F83       0.0483
     39 H16        30.2533   44.0602   22.1276 H           1 F83       0.0579
     40 H17        28.4916   46.8641   19.5385 H           1 F83       0.0579
     41 H18        28.6348   45.2831   17.7158 H           1 F83       0.0483
@<TRIPOS>BOND
     1     1     2   1
     2     2     3   1
     3     3     4   1
     4     3    12   1
     5     4     5   1
     6     5     6   1
     7     6     7  ar
     8     6    11  ar
     9     7     8  ar
    10     8     9  ar
    11     8    13   1
    12     9    10  ar
    13    10    11  ar
    14    11    12   1
    15    13    14   2
    16    13    15   2
    17    13    16  am
    18    16    17   1
    19    17    18  ar
    20    17    22  ar
    21    18    19  ar
    22    19    20  ar
    23    20    21  ar
    24    20    23   1
    25    21    22  ar
    26     1    24   1
    27     2    25   1
    28     2    26   1
    29     3    27   1
    30     4    28   1
    31     4    29   1
    32     5    30   1
    33     5    31   1
    34     7    32   1
    35     9    33   1
    36    10    34   1
    37    12    35   1
    38    12    36   1
    39    16    37   1
    40    18    38   1
    41    19    39   1
    42    21    40   1
    43    22    41   1
@<TRIPOS>SUBSTRUCTURE
     1  F83      2

