@<TRIPOS>MOLECULE
2obf_ligand_020
    41    43
SMALL
GAST_HUCK
****
This file was generated by PARSER (from files_GN.cpp)

@<TRIPOS>ATOM
      1 O1         31.9719   43.4279   20.0382 O.3         1 F83      -0.3893
      2 C1         30.8289   44.1029   20.5641 C.3         1 F83       0.0886
      3 C2         29.6763   44.2031   19.5326 C.3         1 F83       0.0107
      4 N1         29.1805   42.8514   19.1917 N.4         1 F83       0.2432
      5 C3         28.0164   42.8434   18.2776 C.3         1 F83      -0.0016
      6 C4         28.1439   43.7829   17.1300 C.ar        1 F83       0.0053
      7 C5         27.2455   43.6800   16.0453 C.ar        1 F83      -0.0347
      8 C6         27.3594   44.5416   14.9347 C.ar        1 F83       0.1007
      9 C7         28.3800   45.5071   14.9032 C.ar        1 F83      -0.0484
     10 C8         29.2648   45.6319   15.9875 C.ar        1 F83      -0.0646
     11 C9         29.1480   44.7883   17.1136 C.ar        1 F83      -0.0305
     12 C10        30.1074   44.9471   18.2367 C.3         1 F83       0.0239
     13 S1         26.3039   44.3797   13.5643 S.o2        1 F83       0.0850
     14 O2         25.8085   45.8163   13.0920 O.2         1 F83      -0.1456
     15 O3         25.0023   43.5226   13.8960 O.2         1 F83      -0.1456
     16 N2         27.1411   43.6052   12.3237 N.am        1 F83      -0.1875
     17 C11        27.2394   44.1317   11.0781 C.ar        1 F83       0.0630
     18 C12        28.1383   45.1809   10.7934 C.ar        1 F83      -0.0448
     19 C13        28.3057   45.6284    9.4652 C.ar        1 F83      -0.0639
     20 C14        27.5714   45.0414    8.4180 C.ar        1 F83       0.0218
     21 C15        26.6827   43.9961    8.7008 C.ar        1 F83      -0.0639
     22 C16        26.5103   43.5499   10.0242 C.ar        1 F83      -0.0448
     23 CL1        27.7356   45.5799    6.8229 Cl          1 F83      -0.0866
     24 H1         31.6736   42.5176   19.8227 H           1 F83       0.2097
     25 H2         31.1225   45.1051   20.8819 H           1 F83       0.0615
     26 H3         30.4877   43.5591   21.4476 H           1 F83       0.0615
     27 H4         28.8565   44.7624   20.0015 H           1 F83       0.0895
     28 H5         28.9247   42.3738   20.0575 H           1 F83       0.2032
     29 H6         29.9446   42.3250   18.7634 H           1 F83       0.2032
     30 H7         27.1148   43.0942   18.8411 H           1 F83       0.0964
     31 H8         27.9122   41.8234   17.9008 H           1 F83       0.0964
     32 H9         26.5119   42.9649   16.0622 H           1 F83       0.0559
     33 H10        28.4911   46.1233   14.0919 H           1 F83       0.0561
     34 H11        29.9965   46.3457   15.9491 H           1 F83       0.0538
     35 H12        31.0779   44.5810   17.8918 H           1 F83       0.0467
     36 H13        30.2186   46.0061   18.4786 H           1 F83       0.0467
     37 H14        27.2285   42.6448   12.4011 H           1 F83       0.2165
     38 H15        28.7023   45.5861   11.5414 H           1 F83       0.0483
     39 H16        28.9748   46.3680    9.2442 H           1 F83       0.0579
     40 H17        26.1650   43.5528    7.9402 H           1 F83       0.0579
     41 H18        25.8558   42.7931   10.2090 H           1 F83       0.0483
@<TRIPOS>BOND
     1     1     2   1
     2     2     3   1
     3     3     4   1
     4     3    12   1
     5     4     5   1
     6     5     6   1
     7     6     7  ar
     8     6    11  ar
     9     7     8  ar
    10     8     9  ar
    11     8    13   1
    12     9    10  ar
    13    10    11  ar
    14    11    12   1
    15    13    14   2
    16    13    15   2
    17    13    16  am
    18    16    17   1
    19    17    18  ar
    20    17    22  ar
    21    18    19  ar
    22    19    20  ar
    23    20    21  ar
    24    20    23   1
    25    21    22  ar
    26     1    24   1
    27     2    25   1
    28     2    26   1
    29     3    27   1
    30     4    28   1
    31     4    29   1
    32     5    30   1
    33     5    31   1
    34     7    32   1
    35     9    33   1
    36    10    34   1
    37    12    35   1
    38    12    36   1
    39    16    37   1
    40    18    38   1
    41    19    39   1
    42    21    40   1
    43    22    41   1
@<TRIPOS>SUBSTRUCTURE
     1  F83      2

