@<TRIPOS>MOLECULE
2obf_ligand_011
    41    43
SMALL
GAST_HUCK
****
This file was generated by PARSER (from files_GN.cpp)

@<TRIPOS>ATOM
      1 O1         29.1887   45.0739   21.7585 O.3         1 F83      -0.3893
      2 C1         28.5621   44.4449   20.6446 C.3         1 F83       0.0886
      3 C2         29.6071   43.7499   19.7171 C.3         1 F83       0.0107
      4 N1         30.2870   44.6914   18.7904 N.4         1 F83       0.2432
      5 C3         29.4487   45.2446   17.6946 C.3         1 F83      -0.0016
      6 C4         28.5065   44.2703   17.0798 C.ar        1 F83       0.0053
      7 C5         27.7931   44.6275   15.9117 C.ar        1 F83      -0.0347
      8 C6         26.9102   43.7187   15.2920 C.ar        1 F83       0.1007
      9 C7         26.7220   42.4429   15.8633 C.ar        1 F83      -0.0484
     10 C8         27.4200   42.0796   17.0278 C.ar        1 F83      -0.0646
     11 C9         28.2994   42.9900   17.6582 C.ar        1 F83      -0.0305
     12 C10        29.0288   42.5701   18.8834 C.3         1 F83       0.0239
     13 S1         26.0626   44.1386   13.8288 S.o2        1 F83       0.0850
     14 O2         24.5025   44.0897   14.1350 O.2         1 F83      -0.1456
     15 O3         26.4152   42.9899   12.7841 O.2         1 F83      -0.1456
     16 N2         26.4784   45.6260   13.1562 N.am        1 F83      -0.1875
     17 C11        25.9885   46.0307   11.9646 C.ar        1 F83       0.0630
     18 C12        24.7797   46.7573   11.8799 C.ar        1 F83      -0.0448
     19 C13        24.3169   47.2183   10.6322 C.ar        1 F83      -0.0639
     20 C14        25.0716   46.9726    9.4667 C.ar        1 F83       0.0218
     21 C15        26.2895   46.2711    9.5536 C.ar        1 F83      -0.0639
     22 C16        26.7464   45.8071   10.7978 C.ar        1 F83      -0.0448
     23 CL1        24.5174   47.5238    7.9672 Cl          1 F83      -0.0866
     24 H1         29.5030   44.3344   22.3246 H           1 F83       0.2097
     25 H2         27.9970   45.2024   20.1026 H           1 F83       0.0615
     26 H3         27.8489   43.7212   21.0434 H           1 F83       0.0615
     27 H4         30.3802   43.3275   20.3643 H           1 F83       0.0895
     28 H5         31.0594   44.1856   18.3498 H           1 F83       0.2032
     29 H6         30.6892   45.4613   19.3312 H           1 F83       0.2032
     30 H7         30.1319   45.6147   16.9255 H           1 F83       0.0964
     31 H8         28.8757   46.0960   18.0672 H           1 F83       0.0964
     32 H9         27.9228   45.5570   15.5073 H           1 F83       0.0559
     33 H10        26.0834   41.7656   15.4348 H           1 F83       0.0561
     34 H11        27.2816   41.1414   17.4165 H           1 F83       0.0538
     35 H12        28.3817   41.9614   19.5207 H           1 F83       0.0467
     36 H13        29.8524   41.9319   18.5578 H           1 F83       0.0467
     37 H14        26.9141   46.2840   13.7186 H           1 F83       0.2165
     38 H15        24.2340   46.9497   12.7263 H           1 F83       0.0483
     39 H16        23.4403   47.7418   10.5803 H           1 F83       0.0579
     40 H17        26.8511   46.1083    8.7181 H           1 F83       0.0579
     41 H18        27.6404   45.3112   10.8528 H           1 F83       0.0483
@<TRIPOS>BOND
     1     1     2   1
     2     2     3   1
     3     3     4   1
     4     3    12   1
     5     4     5   1
     6     5     6   1
     7     6     7  ar
     8     6    11  ar
     9     7     8  ar
    10     8     9  ar
    11     8    13   1
    12     9    10  ar
    13    10    11  ar
    14    11    12   1
    15    13    14   2
    16    13    15   2
    17    13    16  am
    18    16    17   1
    19    17    18  ar
    20    17    22  ar
    21    18    19  ar
    22    19    20  ar
    23    20    21  ar
    24    20    23   1
    25    21    22  ar
    26     1    24   1
    27     2    25   1
    28     2    26   1
    29     3    27   1
    30     4    28   1
    31     4    29   1
    32     5    30   1
    33     5    31   1
    34     7    32   1
    35     9    33   1
    36    10    34   1
    37    12    35   1
    38    12    36   1
    39    16    37   1
    40    18    38   1
    41    19    39   1
    42    21    40   1
    43    22    41   1
@<TRIPOS>SUBSTRUCTURE
     1  F83      2

