@<TRIPOS>MOLECULE
2obf_ligand_021
    41    43
SMALL
GAST_HUCK
****
This file was generated by PARSER (from files_GN.cpp)

@<TRIPOS>ATOM
      1 O1         25.4204   43.9432   12.2741 O.3         1 F83      -0.3893
      2 C1         26.2895   44.5021   11.2922 C.3         1 F83       0.0886
      3 C2         27.7935   44.4921   11.6964 C.3         1 F83       0.0107
      4 N1         28.3732   43.1308   11.7897 N.4         1 F83       0.2432
      5 C3         27.9604   42.3170   12.9600 C.3         1 F83      -0.0016
      6 C4         27.8202   43.0838   14.2262 C.ar        1 F83       0.0053
      7 C5         27.5328   42.3943   15.4282 C.ar        1 F83      -0.0347
      8 C6         27.3910   43.0894   16.6472 C.ar        1 F83       0.1007
      9 C7         27.5874   44.4843   16.6687 C.ar        1 F83      -0.0484
     10 C8         27.8695   45.1801   15.4791 C.ar        1 F83      -0.0646
     11 C9         27.9344   44.4946   14.2490 C.ar        1 F83      -0.0305
     12 C10        28.1162   45.2813   12.9988 C.3         1 F83       0.0239
     13 S1         27.0837   42.2243   18.1230 S.o2        1 F83       0.0850
     14 O2         27.4852   40.6909   17.9921 O.2         1 F83      -0.1456
     15 O3         25.5171   42.2615   18.4006 O.2         1 F83      -0.1456
     16 N2         27.8835   42.8920   19.4473 N.am        1 F83      -0.1875
     17 C11        29.1618   43.3524   19.4392 C.ar        1 F83       0.0630
     18 C12        30.1271   43.0208   18.4529 C.ar        1 F83      -0.0448
     19 C13        31.4073   43.5948   18.4658 C.ar        1 F83      -0.0639
     20 C14        31.7622   44.5095   19.4744 C.ar        1 F83       0.0218
     21 C15        30.8186   44.8474   20.4667 C.ar        1 F83      -0.0639
     22 C16        29.5381   44.2675   20.4492 C.ar        1 F83      -0.0448
     23 CL1        33.3120   45.1932   19.4674 Cl          1 F83      -0.0866
     24 H1         25.4945   44.5320   13.0544 H           1 F83       0.2097
     25 H2         25.9712   45.5304   11.1029 H           1 F83       0.0615
     26 H3         26.1602   43.9373   10.3657 H           1 F83       0.0615
     27 H4         28.3258   44.9894   10.8794 H           1 F83       0.0895
     28 H5         29.3849   43.2604   11.8480 H           1 F83       0.2032
     29 H6         28.1719   42.6155   10.9265 H           1 F83       0.2032
     30 H7         28.7192   41.5425   13.0939 H           1 F83       0.0964
     31 H8         27.0140   41.8212   12.7368 H           1 F83       0.0964
     32 H9         27.4333   41.3796   15.4083 H           1 F83       0.0559
     33 H10        27.5192   45.0064   17.5428 H           1 F83       0.0561
     34 H11        27.9910   46.1928   15.5196 H           1 F83       0.0538
     35 H12        27.4770   46.1660   13.0359 H           1 F83       0.0467
     36 H13        29.1551   45.6214   12.9684 H           1 F83       0.0467
     37 H14        27.3402   43.1206   20.2140 H           1 F83       0.2165
     38 H15        29.9123   42.3620   17.7004 H           1 F83       0.0483
     39 H16        32.0742   43.3626   17.7231 H           1 F83       0.0579
     40 H17        31.0563   45.5279   21.1928 H           1 F83       0.0579
     41 H18        28.8682   44.5324   21.1748 H           1 F83       0.0483
@<TRIPOS>BOND
     1     1     2   1
     2     2     3   1
     3     3     4   1
     4     3    12   1
     5     4     5   1
     6     5     6   1
     7     6     7  ar
     8     6    11  ar
     9     7     8  ar
    10     8     9  ar
    11     8    13   1
    12     9    10  ar
    13    10    11  ar
    14    11    12   1
    15    13    14   2
    16    13    15   2
    17    13    16  am
    18    16    17   1
    19    17    18  ar
    20    17    22  ar
    21    18    19  ar
    22    19    20  ar
    23    20    21  ar
    24    20    23   1
    25    21    22  ar
    26     1    24   1
    27     2    25   1
    28     2    26   1
    29     3    27   1
    30     4    28   1
    31     4    29   1
    32     5    30   1
    33     5    31   1
    34     7    32   1
    35     9    33   1
    36    10    34   1
    37    12    35   1
    38    12    36   1
    39    16    37   1
    40    18    38   1
    41    19    39   1
    42    21    40   1
    43    22    41   1
@<TRIPOS>SUBSTRUCTURE
     1  F83      2

