@<TRIPOS>MOLECULE
2obf_ligand_024
    41    43
SMALL
GAST_HUCK
****
This file was generated by PARSER (from files_GN.cpp)

@<TRIPOS>ATOM
      1 O1         28.9322   50.6378   23.1784 O.3         1 F83      -0.3893
      2 C1         29.2591   51.2155   24.4391 C.3         1 F83       0.0886
      3 C2         30.2624   52.3972   24.3081 C.3         1 F83       0.0107
      4 N1         29.6262   53.6712   23.8885 N.4         1 F83       0.2432
      5 C3         29.1432   53.7271   22.4919 C.3         1 F83      -0.0016
      6 C4         30.0410   53.0644   21.5084 C.ar        1 F83       0.0053
      7 C5         29.7479   53.1756   20.1355 C.ar        1 F83      -0.0347
      8 C6         30.4136   52.4006   19.1642 C.ar        1 F83       0.1007
      9 C7         31.5028   51.6074   19.5787 C.ar        1 F83      -0.0484
     10 C8         31.8615   51.5391   20.9376 C.ar        1 F83      -0.0646
     11 C9         31.1190   52.2386   21.9182 C.ar        1 F83      -0.0305
     12 C10        31.4590   52.0984   23.3559 C.3         1 F83       0.0239
     13 S1         29.8549   52.3781   17.5042 S.o2        1 F83       0.0850
     14 O2         30.9258   51.6473   16.5852 O.2         1 F83      -0.1456
     15 O3         29.8446   53.8011   16.8045 O.2         1 F83      -0.1456
     16 N2         28.4100   51.5776   17.1433 N.am        1 F83      -0.1875
     17 C11        27.1699   52.1513   17.0929 C.ar        1 F83       0.0630
     18 C12        26.2593   51.7143   16.1086 C.ar        1 F83      -0.0448
     19 C13        24.9591   52.2557   16.0308 C.ar        1 F83      -0.0639
     20 C14        24.5317   53.2298   16.9623 C.ar        1 F83       0.0218
     21 C15        25.4291   53.6644   17.9563 C.ar        1 F83      -0.0639
     22 C16        26.7230   53.1260   18.0098 C.ar        1 F83      -0.0448
     23 CL1        22.9536   53.8391   16.9325 Cl          1 F83      -0.0866
     24 H1         28.3232   49.8963   23.3738 H           1 F83       0.2097
     25 H2         29.7004   50.4360   25.0626 H           1 F83       0.0615
     26 H3         28.3385   51.5544   24.9197 H           1 F83       0.0615
     27 H4         30.6708   52.5778   25.3039 H           1 F83       0.0895
     28 H5         30.3224   54.4121   24.0021 H           1 F83       0.2032
     29 H6         28.8422   53.8745   24.5165 H           1 F83       0.2032
     30 H7         29.0164   54.7771   22.2299 H           1 F83       0.0964
     31 H8         28.1572   53.2553   22.4449 H           1 F83       0.0964
     32 H9         29.0356   53.8424   19.8499 H           1 F83       0.0559
     33 H10        32.0459   51.0658   18.8989 H           1 F83       0.0561
     34 H11        32.6385   50.9328   21.2143 H           1 F83       0.0538
     35 H12        31.8216   51.0841   23.5553 H           1 F83       0.0467
     36 H13        32.2748   52.7963   23.5733 H           1 F83       0.0467
     37 H14        28.5150   50.7192   16.6943 H           1 F83       0.2165
     38 H15        26.5452   51.0026   15.4297 H           1 F83       0.0483
     39 H16        24.3158   51.9309   15.2978 H           1 F83       0.0579
     40 H17        25.1364   54.3483   18.6563 H           1 F83       0.0579
     41 H18        27.3227   53.4220   18.7673 H           1 F83       0.0483
@<TRIPOS>BOND
     1     1     2   1
     2     2     3   1
     3     3     4   1
     4     3    12   1
     5     4     5   1
     6     5     6   1
     7     6     7  ar
     8     6    11  ar
     9     7     8  ar
    10     8     9  ar
    11     8    13   1
    12     9    10  ar
    13    10    11  ar
    14    11    12   1
    15    13    14   2
    16    13    15   2
    17    13    16  am
    18    16    17   1
    19    17    18  ar
    20    17    22  ar
    21    18    19  ar
    22    19    20  ar
    23    20    21  ar
    24    20    23   1
    25    21    22  ar
    26     1    24   1
    27     2    25   1
    28     2    26   1
    29     3    27   1
    30     4    28   1
    31     4    29   1
    32     5    30   1
    33     5    31   1
    34     7    32   1
    35     9    33   1
    36    10    34   1
    37    12    35   1
    38    12    36   1
    39    16    37   1
    40    18    38   1
    41    19    39   1
    42    21    40   1
    43    22    41   1
@<TRIPOS>SUBSTRUCTURE
     1  F83      2

