@<TRIPOS>MOLECULE
2obf_ligand_006
    41    43
SMALL
GAST_HUCK
****
This file was generated by PARSER (from files_GN.cpp)

@<TRIPOS>ATOM
      1 O1         33.1953   43.9536   18.9255 O.3         1 F83      -0.3893
      2 C1         31.9287   43.3697   19.2294 C.3         1 F83       0.0886
      3 C2         30.9101   44.4255   19.7375 C.3         1 F83       0.0107
      4 N1         29.6286   43.8285   20.1813 N.4         1 F83       0.2432
      5 C3         28.8004   43.2151   19.1127 C.3         1 F83      -0.0016
      6 C4         28.7745   43.9844   17.8373 C.ar        1 F83       0.0053
      7 C5         27.9081   43.5761   16.7978 C.ar        1 F83      -0.0347
      8 C6         27.8621   44.2868   15.5814 C.ar        1 F83       0.1007
      9 C7         28.6779   45.4221   15.4091 C.ar        1 F83      -0.0484
     10 C8         29.5498   45.8269   16.4304 C.ar        1 F83      -0.0646
     11 C9         29.6278   45.0981   17.6401 C.ar        1 F83      -0.0305
     12 C10        30.5838   45.5321   18.6974 C.3         1 F83       0.0239
     13 S1         26.8080   43.7906   14.2816 S.o2        1 F83       0.0850
     14 O2         26.0499   42.4454   14.6702 O.2         1 F83      -0.1456
     15 O3         27.7252   43.3826   13.0525 O.2         1 F83      -0.1456
     16 N2         25.8556   45.0772   13.7443 N.am        1 F83      -0.1875
     17 C11        24.5103   45.2105   13.8630 C.ar        1 F83       0.0630
     18 C12        23.6119   44.1227   13.9590 C.ar        1 F83      -0.0448
     19 C13        22.2286   44.3279   14.0576 C.ar        1 F83      -0.0639
     20 C14        21.7074   45.6354   14.0597 C.ar        1 F83       0.0218
     21 C15        22.5814   46.7336   13.9374 C.ar        1 F83      -0.0639
     22 C16        23.9695   46.5185   13.8273 C.ar        1 F83      -0.0448
     23 CL1        20.0319   45.8675   14.1743 Cl          1 F83      -0.0866
     24 H1         33.8243   43.5827   19.5834 H           1 F83       0.2097
     25 H2         32.0660   42.5951   19.9870 H           1 F83       0.0615
     26 H3         31.5600   42.8928   18.3194 H           1 F83       0.0615
     27 H4         31.3515   44.9093   20.6133 H           1 F83       0.0895
     28 H5         29.0750   44.5736   20.6057 H           1 F83       0.2032
     29 H6         29.8091   43.1252   20.9003 H           1 F83       0.2032
     30 H7         27.7832   43.1299   19.5062 H           1 F83       0.0964
     31 H8         29.1684   42.2040   18.9149 H           1 F83       0.0964
     32 H9         27.3123   42.7605   16.9349 H           1 F83       0.0559
     33 H10        28.6487   45.9580   14.5386 H           1 F83       0.0561
     34 H11        30.1422   46.6501   16.2812 H           1 F83       0.0538
     35 H12        31.5127   45.8816   18.2390 H           1 F83       0.0467
     36 H13        30.1298   46.3774   19.2171 H           1 F83       0.0467
     37 H14        26.3486   45.8920   13.5453 H           1 F83       0.2165
     38 H15        23.9534   43.1622   13.9269 H           1 F83       0.0483
     39 H16        21.5996   43.5273   14.1213 H           1 F83       0.0579
     40 H17        22.2159   47.6921   13.9274 H           1 F83       0.0579
     41 H18        24.5898   47.3261   13.7293 H           1 F83       0.0483
@<TRIPOS>BOND
     1     1     2   1
     2     2     3   1
     3     3     4   1
     4     3    12   1
     5     4     5   1
     6     5     6   1
     7     6     7  ar
     8     6    11  ar
     9     7     8  ar
    10     8     9  ar
    11     8    13   1
    12     9    10  ar
    13    10    11  ar
    14    11    12   1
    15    13    14   2
    16    13    15   2
    17    13    16  am
    18    16    17   1
    19    17    18  ar
    20    17    22  ar
    21    18    19  ar
    22    19    20  ar
    23    20    21  ar
    24    20    23   1
    25    21    22  ar
    26     1    24   1
    27     2    25   1
    28     2    26   1
    29     3    27   1
    30     4    28   1
    31     4    29   1
    32     5    30   1
    33     5    31   1
    34     7    32   1
    35     9    33   1
    36    10    34   1
    37    12    35   1
    38    12    36   1
    39    16    37   1
    40    18    38   1
    41    19    39   1
    42    21    40   1
    43    22    41   1
@<TRIPOS>SUBSTRUCTURE
     1  F83      2

