@<TRIPOS>MOLECULE
2obf_ligand_003
    41    43
SMALL
GAST_HUCK
****
This file was generated by PARSER (from files_GN.cpp)

@<TRIPOS>ATOM
      1 O1         29.3334   47.2203   22.0272 O.3         1 F83      -0.3893
      2 C1         29.1021   45.8166   22.0936 C.3         1 F83       0.0886
      3 C2         28.8116   45.1124   20.7244 C.3         1 F83       0.0107
      4 N1         29.6474   43.8916   20.6006 N.4         1 F83       0.2432
      5 C3         29.3760   43.0547   19.4089 C.3         1 F83      -0.0016
      6 C4         29.1831   43.8173   18.1500 C.ar        1 F83       0.0053
      7 C5         29.1455   43.1295   16.9158 C.ar        1 F83      -0.0347
      8 C6         28.9863   43.8291   15.7036 C.ar        1 F83       0.1007
      9 C7         28.8648   45.2339   15.7327 C.ar        1 F83      -0.0484
     10 C8         28.8732   45.9249   16.9571 C.ar        1 F83      -0.0646
     11 C9         29.0210   45.2279   18.1769 C.ar        1 F83      -0.0305
     12 C10        29.0790   45.9837   19.4624 C.3         1 F83       0.0239
     13 S1         28.9579   42.9692   14.1889 S.o2        1 F83       0.0850
     14 O2         28.6074   41.4289   14.3263 O.2         1 F83      -0.1456
     15 O3         30.4581   42.9857   13.6681 O.2         1 F83      -0.1456
     16 N2         28.0637   43.7053   12.9615 N.am        1 F83      -0.1875
     17 C11        26.8118   44.1701   13.2103 C.ar        1 F83       0.0630
     18 C12        25.7983   43.3641   13.7752 C.ar        1 F83      -0.0448
     19 C13        24.5368   43.9109   14.0764 C.ar        1 F83      -0.0639
     20 C14        24.2758   45.2699   13.8204 C.ar        1 F83       0.0218
     21 C15        25.2747   46.0775   13.2456 C.ar        1 F83      -0.0639
     22 C16        26.5316   45.5227   12.9258 C.ar        1 F83      -0.0448
     23 CL1        22.7687   45.9376   14.2134 Cl          1 F83      -0.0866
     24 H1         28.4546   47.6404   21.9324 H           1 F83       0.2097
     25 H2         28.2599   45.6616   22.7668 H           1 F83       0.0615
     26 H3         29.9867   45.3869   22.5611 H           1 F83       0.0615
     27 H4         27.7637   44.8063   20.7041 H           1 F83       0.0895
     28 H5         29.5143   43.3003   21.4202 H           1 F83       0.2032
     29 H6         30.6271   44.1814   20.5691 H           1 F83       0.2032
     30 H7         28.4860   42.4437   19.5934 H           1 F83       0.0964
     31 H8         30.2324   42.3821   19.2978 H           1 F83       0.0964
     32 H9         29.2486   42.1127   16.9046 H           1 F83       0.0559
     33 H10        28.7687   45.7711   14.8688 H           1 F83       0.0561
     34 H11        28.7717   46.9445   16.9545 H           1 F83       0.0538
     35 H12        30.0800   46.4167   19.5289 H           1 F83       0.0467
     36 H13        28.3461   46.7939   19.4424 H           1 F83       0.0467
     37 H14        28.5848   44.1534   12.2756 H           1 F83       0.2165
     38 H15        25.9711   42.3774   13.9662 H           1 F83       0.0483
     39 H16        23.8122   43.3150   14.4824 H           1 F83       0.0579
     40 H17        25.1019   47.0722   13.0637 H           1 F83       0.0579
     41 H18        27.2543   46.1249   12.5224 H           1 F83       0.0483
@<TRIPOS>BOND
     1     1     2   1
     2     2     3   1
     3     3     4   1
     4     3    12   1
     5     4     5   1
     6     5     6   1
     7     6     7  ar
     8     6    11  ar
     9     7     8  ar
    10     8     9  ar
    11     8    13   1
    12     9    10  ar
    13    10    11  ar
    14    11    12   1
    15    13    14   2
    16    13    15   2
    17    13    16  am
    18    16    17   1
    19    17    18  ar
    20    17    22  ar
    21    18    19  ar
    22    19    20  ar
    23    20    21  ar
    24    20    23   1
    25    21    22  ar
    26     1    24   1
    27     2    25   1
    28     2    26   1
    29     3    27   1
    30     4    28   1
    31     4    29   1
    32     5    30   1
    33     5    31   1
    34     7    32   1
    35     9    33   1
    36    10    34   1
    37    12    35   1
    38    12    36   1
    39    16    37   1
    40    18    38   1
    41    19    39   1
    42    21    40   1
    43    22    41   1
@<TRIPOS>SUBSTRUCTURE
     1  F83      2

