@<TRIPOS>MOLECULE
2obf_ligand_002
    41    43
SMALL
GAST_HUCK
****
This file was generated by PARSER (from files_GN.cpp)

@<TRIPOS>ATOM
      1 O1         25.8664   44.0946   10.6584 O.3         1 F83      -0.3893
      2 C1         26.2256   44.2229   12.0362 C.3         1 F83       0.0886
      3 C2         27.7653   44.3773   12.2102 C.3         1 F83       0.0107
      4 N1         28.4696   43.0825   12.3649 N.4         1 F83       0.2432
      5 C3         28.2669   42.3760   13.6656 C.3         1 F83      -0.0016
      6 C4         28.1977   43.2643   14.8630 C.ar        1 F83       0.0053
      7 C5         28.1416   42.6885   16.1525 C.ar        1 F83      -0.0347
      8 C6         28.0552   43.5013   17.3048 C.ar        1 F83       0.1007
      9 C7         28.0503   44.9032   17.1594 C.ar        1 F83      -0.0484
     10 C8         28.1111   45.4766   15.8765 C.ar        1 F83      -0.0646
     11 C9         28.1517   44.6735   14.7203 C.ar        1 F83      -0.0305
     12 C10        28.1938   45.3133   13.3848 C.3         1 F83       0.0239
     13 S1         27.8767   42.8217   18.8998 S.o2        1 F83       0.0850
     14 O2         28.0488   41.2411   18.7940 O.2         1 F83      -0.1456
     15 O3         26.3958   43.0118   19.4390 O.2         1 F83      -0.1456
     16 N2         29.0273   43.2976   20.0308 N.am        1 F83      -0.1875
     17 C11        29.2257   44.5806   20.4339 C.ar        1 F83       0.0630
     18 C12        28.2095   45.3451   21.0553 C.ar        1 F83      -0.0448
     19 C13        28.4678   46.6547   21.4787 C.ar        1 F83      -0.0639
     20 C14        29.7313   47.2355   21.2710 C.ar        1 F83       0.0218
     21 C15        30.7465   46.4683   20.6616 C.ar        1 F83      -0.0639
     22 C16        30.5057   45.1431   20.2647 C.ar        1 F83      -0.0448
     23 CL1        30.0402   48.8243   21.7443 Cl          1 F83      -0.0866
     24 H1         26.0511   44.9694   10.2618 H           1 F83       0.2097
     25 H2         25.8558   43.3440   12.5671 H           1 F83       0.0615
     26 H3         25.6995   45.0894   12.4285 H           1 F83       0.0615
     27 H4         28.1528   44.8340   11.2862 H           1 F83       0.0895
     28 H5         29.4663   43.2802   12.2748 H           1 F83       0.2032
     29 H6         28.1933   42.4550   11.6147 H           1 F83       0.2032
     30 H7         29.0985   41.6914   13.7884 H           1 F83       0.0964
     31 H8         27.3506   41.7921   13.6148 H           1 F83       0.0964
     32 H9         28.1550   41.6689   16.2422 H           1 F83       0.0559
     33 H10        27.9870   45.5117   17.9812 H           1 F83       0.0561
     34 H11        28.1000   46.4979   15.8018 H           1 F83       0.0538
     35 H12        27.5609   46.2040   13.3730 H           1 F83       0.0467
     36 H13        29.2215   45.6410   13.2057 H           1 F83       0.0467
     37 H14        29.5719   42.5993   20.4474 H           1 F83       0.2165
     38 H15        27.2869   44.9395   21.2299 H           1 F83       0.0483
     39 H16        27.7313   47.1959   21.9370 H           1 F83       0.0579
     40 H17        31.6668   46.8847   20.4998 H           1 F83       0.0579
     41 H18        31.2541   44.6060   19.8282 H           1 F83       0.0483
@<TRIPOS>BOND
     1     1     2   1
     2     2     3   1
     3     3     4   1
     4     3    12   1
     5     4     5   1
     6     5     6   1
     7     6     7  ar
     8     6    11  ar
     9     7     8  ar
    10     8     9  ar
    11     8    13   1
    12     9    10  ar
    13    10    11  ar
    14    11    12   1
    15    13    14   2
    16    13    15   2
    17    13    16  am
    18    16    17   1
    19    17    18  ar
    20    17    22  ar
    21    18    19  ar
    22    19    20  ar
    23    20    21  ar
    24    20    23   1
    25    21    22  ar
    26     1    24   1
    27     2    25   1
    28     2    26   1
    29     3    27   1
    30     4    28   1
    31     4    29   1
    32     5    30   1
    33     5    31   1
    34     7    32   1
    35     9    33   1
    36    10    34   1
    37    12    35   1
    38    12    36   1
    39    16    37   1
    40    18    38   1
    41    19    39   1
    42    21    40   1
    43    22    41   1
@<TRIPOS>SUBSTRUCTURE
     1  F83      2

