@<TRIPOS>MOLECULE
2obf_ligand_034
    41    43
SMALL
GAST_HUCK
****
This file was generated by PARSER (from files_GN.cpp)

@<TRIPOS>ATOM
      1 O1         24.3110   53.0626   16.5230 O.3         1 F83      -0.3893
      2 C1         25.2525   52.1324   15.9871 C.3         1 F83       0.0886
      3 C2         26.6427   52.3663   16.6218 C.3         1 F83       0.0107
      4 N1         27.6463   51.4583   16.0216 N.4         1 F83       0.2432
      5 C3         29.0226   51.6802   16.5184 C.3         1 F83      -0.0016
      6 C4         29.1098   51.8268   17.9896 C.ar        1 F83       0.0053
      7 C5         30.3716   51.7744   18.6092 C.ar        1 F83      -0.0347
      8 C6         30.4856   51.8269   20.0087 C.ar        1 F83       0.1007
      9 C7         29.3268   51.9635   20.8018 C.ar        1 F83      -0.0484
     10 C8         28.0711   52.0663   20.1882 C.ar        1 F83      -0.0646
     11 C9         27.9498   52.0263   18.7817 C.ar        1 F83      -0.0305
     12 C10        26.6112   52.1431   18.1574 C.3         1 F83       0.0239
     13 S1         32.0514   51.6687   20.7301 S.o2        1 F83       0.0850
     14 O2         32.9422   52.9236   20.3441 O.2         1 F83      -0.1456
     15 O3         32.7468   50.4783   19.9259 O.2         1 F83      -0.1456
     16 N2         32.1849   51.2150   22.3432 N.am        1 F83      -0.1875
     17 C11        32.0699   52.1187   23.3446 C.ar        1 F83       0.0630
     18 C12        32.9920   53.1798   23.4984 C.ar        1 F83      -0.0448
     19 C13        32.9257   54.0188   24.6270 C.ar        1 F83      -0.0639
     20 C14        31.9376   53.8054   25.6052 C.ar        1 F83       0.0218
     21 C15        31.0110   52.7596   25.4477 C.ar        1 F83      -0.0639
     22 C16        31.0897   51.9066   24.3326 C.ar        1 F83      -0.0448
     23 CL1        31.8902   54.7617   26.9991 Cl          1 F83      -0.0866
     24 H1         23.4577   52.8572   16.0878 H           1 F83       0.2097
     25 H2         25.3061   52.2521   14.9062 H           1 F83       0.0615
     26 H3         24.9169   51.1153   16.1859 H           1 F83       0.0615
     27 H4         26.9376   53.4004   16.4177 H           1 F83       0.0895
     28 H5         27.6499   51.5852   15.0085 H           1 F83       0.2032
     29 H6         27.3795   50.4926   16.2308 H           1 F83       0.2032
     30 H7         29.4430   52.5798   16.0624 H           1 F83       0.0964
     31 H8         29.6161   50.8192   16.1990 H           1 F83       0.0964
     32 H9         31.2121   51.6711   18.0336 H           1 F83       0.0559
     33 H10        29.3867   51.9865   21.8204 H           1 F83       0.0561
     34 H11        27.2393   52.1746   20.7767 H           1 F83       0.0538
     35 H12        26.0847   51.2126   18.3643 H           1 F83       0.0467
     36 H13        26.0618   52.9697   18.6177 H           1 F83       0.0467
     37 H14        31.9625   50.2924   22.5549 H           1 F83       0.2165
     38 H15        33.7497   53.3161   22.8263 H           1 F83       0.0483
     39 H16        33.6157   54.7645   24.7441 H           1 F83       0.0579
     40 H17        30.2878   52.6015   26.1464 H           1 F83       0.0579
     41 H18        30.4209   51.1384   24.2420 H           1 F83       0.0483
@<TRIPOS>BOND
     1     1     2   1
     2     2     3   1
     3     3     4   1
     4     3    12   1
     5     4     5   1
     6     5     6   1
     7     6     7  ar
     8     6    11  ar
     9     7     8  ar
    10     8     9  ar
    11     8    13   1
    12     9    10  ar
    13    10    11  ar
    14    11    12   1
    15    13    14   2
    16    13    15   2
    17    13    16  am
    18    16    17   1
    19    17    18  ar
    20    17    22  ar
    21    18    19  ar
    22    19    20  ar
    23    20    21  ar
    24    20    23   1
    25    21    22  ar
    26     1    24   1
    27     2    25   1
    28     2    26   1
    29     3    27   1
    30     4    28   1
    31     4    29   1
    32     5    30   1
    33     5    31   1
    34     7    32   1
    35     9    33   1
    36    10    34   1
    37    12    35   1
    38    12    36   1
    39    16    37   1
    40    18    38   1
    41    19    39   1
    42    21    40   1
    43    22    41   1
@<TRIPOS>SUBSTRUCTURE
     1  F83      2

