@<TRIPOS>MOLECULE
2obf_ligand_026
    41    43
SMALL
GAST_HUCK
****
This file was generated by PARSER (from files_GN.cpp)

@<TRIPOS>ATOM
      1 O1         26.9734   44.6392    7.9885 O.3         1 F83      -0.3893
      2 C1         26.6733   45.4868    9.0959 C.3         1 F83       0.0886
      3 C2         26.4517   44.6595   10.3935 C.3         1 F83       0.0107
      4 N1         25.6150   45.4197   11.3502 N.4         1 F83       0.2432
      5 C3         25.2543   44.6684   12.5751 C.3         1 F83      -0.0016
      6 C4         26.3895   43.9368   13.1941 C.ar        1 F83       0.0053
      7 C5         26.2561   43.4091   14.5025 C.ar        1 F83      -0.0347
      8 C6         27.3304   42.7332   15.1199 C.ar        1 F83       0.1007
      9 C7         28.5403   42.5842   14.4160 C.ar        1 F83      -0.0484
     10 C8         28.6775   43.0846   13.1128 C.ar        1 F83      -0.0646
     11 C9         27.6030   43.7472   12.4791 C.ar        1 F83      -0.0305
     12 C10        27.7856   44.2603   11.0943 C.3         1 F83       0.0239
     13 S1         27.2259   42.0825   16.7328 S.o2        1 F83       0.0850
     14 O2         28.1352   40.7858   16.9027 O.2         1 F83      -0.1456
     15 O3         25.7580   41.5194   16.9637 O.2         1 F83      -0.1456
     16 N2         27.5387   43.1776   17.9736 N.am        1 F83      -0.1875
     17 C11        28.7945   43.5765   18.2599 C.ar        1 F83       0.0630
     18 C12        29.6506   42.7939   19.0618 C.ar        1 F83      -0.0448
     19 C13        30.9465   43.2462   19.3676 C.ar        1 F83      -0.0639
     20 C14        31.3974   44.4851   18.8744 C.ar        1 F83       0.0218
     21 C15        30.5422   45.2702   18.0745 C.ar        1 F83      -0.0639
     22 C16        29.2441   44.8201   17.7720 C.ar        1 F83      -0.0448
     23 CL1        32.9648   45.0146   19.2195 Cl          1 F83      -0.0866
     24 H1         27.7123   44.0657    8.2810 H           1 F83       0.2097
     25 H2         25.7659   46.0392    8.8411 H           1 F83       0.0615
     26 H3         27.4815   46.2113    9.2265 H           1 F83       0.0615
     27 H4         25.9059   43.7490   10.1233 H           1 F83       0.0895
     28 H5         24.7480   45.6958   10.8799 H           1 F83       0.2032
     29 H6         26.1249   46.2645   11.6237 H           1 F83       0.2032
     30 H7         24.4610   43.9562   12.3349 H           1 F83       0.0964
     31 H8         24.8588   45.3974   13.2868 H           1 F83       0.0964
     32 H9         25.3685   43.5234   15.0041 H           1 F83       0.0559
     33 H10        29.3306   42.0965   14.8443 H           1 F83       0.0561
     34 H11        29.5668   42.9467   12.6259 H           1 F83       0.0538
     35 H12        28.4502   45.1272   11.1527 H           1 F83       0.0467
     36 H13        28.2762   43.4938   10.4863 H           1 F83       0.0467
     37 H14        26.8625   43.2996   18.6569 H           1 F83       0.2165
     38 H15        29.3285   41.8967   19.4305 H           1 F83       0.0483
     39 H16        31.5609   42.6745   19.9497 H           1 F83       0.0579
     40 H17        30.8563   46.1773   17.7159 H           1 F83       0.0579
     41 H18        28.6210   45.4095   17.2094 H           1 F83       0.0483
@<TRIPOS>BOND
     1     1     2   1
     2     2     3   1
     3     3     4   1
     4     3    12   1
     5     4     5   1
     6     5     6   1
     7     6     7  ar
     8     6    11  ar
     9     7     8  ar
    10     8     9  ar
    11     8    13   1
    12     9    10  ar
    13    10    11  ar
    14    11    12   1
    15    13    14   2
    16    13    15   2
    17    13    16  am
    18    16    17   1
    19    17    18  ar
    20    17    22  ar
    21    18    19  ar
    22    19    20  ar
    23    20    21  ar
    24    20    23   1
    25    21    22  ar
    26     1    24   1
    27     2    25   1
    28     2    26   1
    29     3    27   1
    30     4    28   1
    31     4    29   1
    32     5    30   1
    33     5    31   1
    34     7    32   1
    35     9    33   1
    36    10    34   1
    37    12    35   1
    38    12    36   1
    39    16    37   1
    40    18    38   1
    41    19    39   1
    42    21    40   1
    43    22    41   1
@<TRIPOS>SUBSTRUCTURE
     1  F83      2

