@<TRIPOS>MOLECULE
2ole_ligand_020
    55    57
SMALL
GAST_HUCK
****
This file was generated by PARSER (from files_GN.cpp)

@<TRIPOS>ATOM
      1 CAY        -1.5638    3.4804   -9.7471 C.ar        1 KR2      -0.0419
      2 CBC        -0.8120    2.5440  -10.4796 C.ar        1 KR2      -0.0562
      3 CBB        -0.0903    1.5427   -9.8107 C.ar        1 KR2      -0.0575
      4 CBA        -0.1142    1.4789   -8.4082 C.ar        1 KR2      -0.0562
      5 CAZ        -0.8617    2.4183   -7.6740 C.ar        1 KR2      -0.0419
      6 CAX        -1.6210    3.4183   -8.3299 C.ar        1 KR2       0.0519
      7 CAW        -2.3386    4.3785   -7.6143 C.2         1 KR2       0.2286
      8 OAA        -2.0395    5.5403   -7.8682 O.2         1 KR2      -0.3825
      9 NAR        -3.2996    4.1368   -6.6927 N.am        1 KR2      -0.1656
     10 CAV        -3.8540    2.8111   -6.4496 C.3         1 KR2       0.0587
     11 CDD        -5.0576    2.6708   -5.4662 C.3         1 KR2      -0.0303
     12 CNN        -6.3398    3.4294   -5.9012 C.3         1 KR2      -0.0492
     13 CAT        -6.2697    4.9660   -5.6951 C.3         1 KR2      -0.0302
     14 CAS        -5.1051    5.6396   -6.4633 C.3         1 KR2       0.0592
     15 NAQ        -3.8142    5.1617   -6.0062 N.am        1 KR2      -0.1666
     16 CAO        -3.1276    5.6666   -4.9590 C.2         1 KR2       0.2052
     17 OAP        -1.9938    5.2441   -4.7538 O.2         1 KR2      -0.3947
     18 CAN        -3.5620    6.7373   -4.0605 C.3         1 KR2       0.0838
     19 CAL        -3.3553    6.4778   -2.5327 C.3         1 KR2       0.0010
     20 NAM        -1.9394    6.6675   -2.1712 N.4         1 KR2       0.2238
     21 CAK        -3.8829    5.0906   -2.0565 C.3         1 KR2       0.0243
     22 CAG        -3.9990    4.9999   -0.5718 C.ar        1 KR2      -0.0094
     23 CAH        -5.2272    5.3123    0.0596 C.ar        1 KR2      -0.0298
     24 CAC        -5.3489    5.2947    1.4629 C.ar        1 KR2       0.1544
     25 FAB        -6.4990    5.5730    2.0156 F           1 KR2      -0.1895
     26 CAD        -4.2320    4.9786    2.2588 C.ar        1 KR2       0.1560
     27 FAI        -4.3304    4.9601    3.5612 F           1 KR2      -0.1911
     28 CAE        -3.0076    4.6543    1.6477 C.ar        1 KR2      -0.0030
     29 CAF        -2.8891    4.6537    0.2455 C.ar        1 KR2       0.1274
     30 FAJ        -1.7342    4.3298   -0.2739 F           1 KR2      -0.1934
     31 H1         -2.0780    4.2050  -10.2544 H           1 KR2       0.0669
     32 H2         -0.7863    2.5954  -11.5009 H           1 KR2       0.0629
     33 H3          0.4624    0.8684  -10.3447 H           1 KR2       0.0653
     34 H4          0.4210    0.7576   -7.9222 H           1 KR2       0.0629
     35 H5         -0.8192    2.3767   -6.6539 H           1 KR2       0.0669
     36 H6         -3.0659    2.1693   -6.0515 H           1 KR2       0.0545
     37 H7         -4.1613    2.3826   -7.4091 H           1 KR2       0.0545
     38 H8         -4.7521    2.9984   -4.4670 H           1 KR2       0.0285
     39 H9         -5.3046    1.6082   -5.3903 H           1 KR2       0.0285
     40 H10        -7.1773    3.0541   -5.3107 H           1 KR2       0.0267
     41 H11        -6.5567    3.2074   -6.9499 H           1 KR2       0.0267
     42 H12        -6.1862    5.1800   -4.6311 H           1 KR2       0.0285
     43 H13        -7.2154    5.4030   -6.0366 H           1 KR2       0.0285
     44 H14        -5.1776    6.7261   -6.3704 H           1 KR2       0.0546
     45 H15        -5.2419    5.4338   -7.5314 H           1 KR2       0.0546
     46 H16        -4.6177    6.9653   -4.1951 H           1 KR2       0.0561
     47 H17        -3.0174    7.6418   -4.3399 H           1 KR2       0.0561
     48 H18        -3.9111    7.2550   -1.9991 H           1 KR2       0.0898
     49 H19        -1.8415    6.6320   -1.1578 H           1 KR2       0.2000
     50 H20        -1.6073    7.5743   -2.5002 H           1 KR2       0.2000
     51 H21        -1.3636    5.9303   -2.5820 H           1 KR2       0.2000
     52 H22        -3.2311    4.2955   -2.4310 H           1 KR2       0.0467
     53 H23        -4.8615    4.9181   -2.5068 H           1 KR2       0.0467
     54 H24        -6.0452    5.5638   -0.5041 H           1 KR2       0.0522
     55 H25        -2.2006    4.4075    2.2238 H           1 KR2       0.0562
@<TRIPOS>BOND
     1     1     2  ar
     2     1     6  ar
     3     2     3  ar
     4     3     4  ar
     5     4     5  ar
     6     5     6  ar
     7     6     7   1
     8     7     8   2
     9     7     9  am
    10     9    10   1
    11     9    15   1
    12    10    11   1
    13    11    12   1
    14    12    13   1
    15    13    14   1
    16    14    15   1
    17    15    16  am
    18    16    17   2
    19    16    18   1
    20    18    19   1
    21    19    20   1
    22    19    21   1
    23    21    22   1
    24    22    23  ar
    25    22    29  ar
    26    23    24  ar
    27    24    25   1
    28    24    26  ar
    29    26    27   1
    30    26    28  ar
    31    28    29  ar
    32    29    30   1
    33     1    31   1
    34     2    32   1
    35     3    33   1
    36     4    34   1
    37     5    35   1
    38    10    36   1
    39    10    37   1
    40    11    38   1
    41    11    39   1
    42    12    40   1
    43    12    41   1
    44    13    42   1
    45    13    43   1
    46    14    44   1
    47    14    45   1
    48    18    46   1
    49    18    47   1
    50    19    48   1
    51    20    49   1
    52    20    50   1
    53    20    51   1
    54    21    52   1
    55    21    53   1
    56    23    54   1
    57    28    55   1
@<TRIPOS>SUBSTRUCTURE
     1  KR2      1

