@<TRIPOS>MOLECULE
2ole_ligand_060
    55    57
SMALL
GAST_HUCK
****
This file was generated by PARSER (from files_GN.cpp)

@<TRIPOS>ATOM
      1 CAY        -7.9718    2.4663   -8.0314 C.ar        1 KR2      -0.0419
      2 CBC        -9.2727    2.4795   -8.5671 C.ar        1 KR2      -0.0562
      3 CBB       -10.2429    3.3588   -8.0455 C.ar        1 KR2      -0.0575
      4 CBA        -9.9076    4.2269   -6.9891 C.ar        1 KR2      -0.0562
      5 CAZ        -8.6070    4.2128   -6.4503 C.ar        1 KR2      -0.0419
      6 CAX        -7.6309    3.3322   -6.9676 C.ar        1 KR2       0.0519
      7 CAW        -6.3620    3.3133   -6.4221 C.2         1 KR2       0.2286
      8 OAA        -5.5513    4.0433   -6.9807 O.2         1 KR2      -0.3825
      9 NAR        -6.0209    2.6132   -5.3225 N.am        1 KR2      -0.1656
     10 CAV        -6.9411    1.6872   -4.6787 C.3         1 KR2       0.0587
     11 CDD        -6.4234    0.8871   -3.4492 C.3         1 KR2      -0.0303
     12 CNN        -5.2285   -0.0562   -3.7558 C.3         1 KR2      -0.0492
     13 CAT        -3.8633    0.6579   -3.9517 C.3         1 KR2      -0.0302
     14 CAS        -3.8580    1.7242   -5.0752 C.3         1 KR2       0.0592
     15 NAQ        -4.8072    2.7873   -4.7997 N.am        1 KR2      -0.1666
     16 CAO        -4.6076    3.8172   -3.9496 C.2         1 KR2       0.2052
     17 OAP        -5.5909    4.4713   -3.6089 O.2         1 KR2      -0.3947
     18 CAN        -3.3705    4.1358   -3.2311 C.3         1 KR2       0.0838
     19 CAL        -3.1388    5.6617   -2.9116 C.3         1 KR2       0.0010
     20 NAM        -2.0393    6.2173   -3.7272 N.4         1 KR2       0.2238
     21 CAK        -2.8419    5.9408   -1.4020 C.3         1 KR2       0.0243
     22 CAG        -3.9326    5.6969   -0.4017 C.ar        1 KR2      -0.0094
     23 CAH        -5.2872    5.9901   -0.7049 C.ar        1 KR2      -0.0298
     24 CAC        -6.3012    5.8565    0.2572 C.ar        1 KR2       0.1544
     25 FAB        -7.5403    6.0878   -0.0781 F           1 KR2      -0.1895
     26 CAD        -5.9727    5.4963    1.5765 C.ar        1 KR2       0.1560
     27 FAI        -6.8863    5.4534    2.5039 F           1 KR2      -0.1911
     28 CAE        -4.6399    5.2191    1.9103 C.ar        1 KR2      -0.0030
     29 CAF        -3.6295    5.3000    0.9298 C.ar        1 KR2       0.1274
     30 FAJ        -2.4112    5.0467    1.3176 F           1 KR2      -0.1934
     31 H1         -7.2808    1.8170   -8.4175 H           1 KR2       0.0669
     32 H2         -9.5163    1.8515   -9.3371 H           1 KR2       0.0629
     33 H3        -11.1873    3.3655   -8.4374 H           1 KR2       0.0653
     34 H4        -10.6077    4.8692   -6.6116 H           1 KR2       0.0629
     35 H5         -8.3840    4.8495   -5.6793 H           1 KR2       0.0669
     36 H6         -7.2889    0.9594   -5.4175 H           1 KR2       0.0545
     37 H7         -7.8107    2.2574   -4.3447 H           1 KR2       0.0545
     38 H8         -7.2502    0.2772   -3.0759 H           1 KR2       0.0285
     39 H9         -6.1472    1.5767   -2.6494 H           1 KR2       0.0285
     40 H10        -5.4546   -0.6549   -4.6410 H           1 KR2       0.0267
     41 H11        -5.1190   -0.7496   -2.9178 H           1 KR2       0.0267
     42 H12        -3.1153   -0.0993   -4.1982 H           1 KR2       0.0285
     43 H13        -3.5584    1.1194   -3.0095 H           1 KR2       0.0285
     44 H14        -4.1113    1.2242   -6.0165 H           1 KR2       0.0546
     45 H15        -2.8507    2.1129   -5.2224 H           1 KR2       0.0546
     46 H16        -2.4985    3.7762   -3.7805 H           1 KR2       0.0561
     47 H17        -3.4004    3.5598   -2.3046 H           1 KR2       0.0561
     48 H18        -4.0003    6.2616   -3.2004 H           1 KR2       0.0898
     49 H19        -1.9487    7.2259   -3.5685 H           1 KR2       0.2000
     50 H20        -2.2286    6.0529   -4.7210 H           1 KR2       0.2000
     51 H21        -1.1607    5.7638   -3.4722 H           1 KR2       0.2000
     52 H22        -2.5627    6.9935   -1.2950 H           1 KR2       0.0467
     53 H23        -1.9597    5.3430   -1.1468 H           1 KR2       0.0467
     54 H24        -5.5460    6.3232   -1.6344 H           1 KR2       0.0522
     55 H25        -4.3984    4.9739    2.8721 H           1 KR2       0.0562
@<TRIPOS>BOND
     1     1     2  ar
     2     1     6  ar
     3     2     3  ar
     4     3     4  ar
     5     4     5  ar
     6     5     6  ar
     7     6     7   1
     8     7     8   2
     9     7     9  am
    10     9    10   1
    11     9    15   1
    12    10    11   1
    13    11    12   1
    14    12    13   1
    15    13    14   1
    16    14    15   1
    17    15    16  am
    18    16    17   2
    19    16    18   1
    20    18    19   1
    21    19    20   1
    22    19    21   1
    23    21    22   1
    24    22    23  ar
    25    22    29  ar
    26    23    24  ar
    27    24    25   1
    28    24    26  ar
    29    26    27   1
    30    26    28  ar
    31    28    29  ar
    32    29    30   1
    33     1    31   1
    34     2    32   1
    35     3    33   1
    36     4    34   1
    37     5    35   1
    38    10    36   1
    39    10    37   1
    40    11    38   1
    41    11    39   1
    42    12    40   1
    43    12    41   1
    44    13    42   1
    45    13    43   1
    46    14    44   1
    47    14    45   1
    48    18    46   1
    49    18    47   1
    50    19    48   1
    51    20    49   1
    52    20    50   1
    53    20    51   1
    54    21    52   1
    55    21    53   1
    56    23    54   1
    57    28    55   1
@<TRIPOS>SUBSTRUCTURE
     1  KR2      1

