@<TRIPOS>MOLECULE
2ole_ligand_017
    55    57
SMALL
GAST_HUCK
****
This file was generated by PARSER (from files_GN.cpp)

@<TRIPOS>ATOM
      1 CAY        -7.7399    0.9060   -3.9486 C.ar        1 KR2      -0.0419
      2 CBC        -8.7699   -0.0354   -3.7650 C.ar        1 KR2      -0.0562
      3 CBB        -8.5552   -1.1645   -2.9577 C.ar        1 KR2      -0.0575
      4 CBA        -7.3218   -1.3351   -2.3037 C.ar        1 KR2      -0.0562
      5 CAZ        -6.2946   -0.3903   -2.4820 C.ar        1 KR2      -0.0419
      6 CAX        -6.4782    0.7286   -3.3304 C.ar        1 KR2       0.0519
      7 CAW        -5.4458    1.6460   -3.5183 C.2         1 KR2       0.2286
      8 OAA        -5.0034    2.1338   -2.4831 O.2         1 KR2      -0.3825
      9 NAR        -4.8912    1.9824   -4.7040 N.am        1 KR2      -0.1656
     10 CAV        -5.2340    1.2773   -5.9343 C.3         1 KR2       0.0587
     11 CDD        -4.4702    1.6317   -7.2378 C.3         1 KR2      -0.0303
     12 CNN        -2.9533    1.3158   -7.1879 C.3         1 KR2      -0.0492
     13 CAT        -2.1309    2.3276   -6.3523 C.3         1 KR2      -0.0302
     14 CAS        -2.5667    2.4056   -4.8671 C.3         1 KR2       0.0592
     15 NAQ        -3.9255    2.9146   -4.7272 N.am        1 KR2      -0.1666
     16 CAO        -4.2698    4.2203   -4.6063 C.2         1 KR2       0.2052
     17 OAP        -5.4626    4.5142   -4.6312 O.2         1 KR2      -0.3947
     18 CAN        -3.3855    5.3789   -4.4555 C.3         1 KR2       0.0838
     19 CAL        -3.4777    6.2290   -3.1271 C.3         1 KR2       0.0010
     20 NAM        -2.1250    6.7005   -2.7531 N.4         1 KR2       0.2238
     21 CAK        -4.2394    5.6461   -1.8722 C.3         1 KR2       0.0243
     22 CAG        -3.4370    5.1603   -0.7080 C.ar        1 KR2      -0.0094
     23 CAH        -3.6808    5.6802    0.5912 C.ar        1 KR2      -0.0298
     24 CAC        -2.9716    5.2100    1.7117 C.ar        1 KR2       0.1544
     25 FAB        -3.2274    5.7149    2.8895 F           1 KR2      -0.1895
     26 CAD        -1.9842    4.2196    1.5506 C.ar        1 KR2       0.1560
     27 FAI        -1.2782    3.8005    2.5655 F           1 KR2      -0.1911
     28 CAE        -1.7398    3.6801    0.2739 C.ar        1 KR2      -0.0030
     29 CAF        -2.4679    4.1339   -0.8431 C.ar        1 KR2       0.1274
     30 FAJ        -2.2300    3.5753   -1.9866 F           1 KR2      -0.1934
     31 H1         -7.9294    1.7347   -4.5183 H           1 KR2       0.0669
     32 H2         -9.6776    0.1056   -4.2146 H           1 KR2       0.0629
     33 H3         -9.2984   -1.8572   -2.8361 H           1 KR2       0.0653
     34 H4         -7.1717   -2.1465   -1.7004 H           1 KR2       0.0629
     35 H5         -5.4032   -0.5351   -1.9998 H           1 KR2       0.0669
     36 H6         -6.2864    1.4553   -6.1553 H           1 KR2       0.0545
     37 H7         -5.1131    0.2024   -5.7655 H           1 KR2       0.0545
     38 H8         -4.6293    2.6868   -7.4749 H           1 KR2       0.0285
     39 H9         -4.9058    1.0435   -8.0518 H           1 KR2       0.0285
     40 H10        -2.5620    1.3287   -8.2095 H           1 KR2       0.0267
     41 H11        -2.7996    0.3057   -6.7950 H           1 KR2       0.0267
     42 H12        -2.2015    3.3217   -6.8050 H           1 KR2       0.0285
     43 H13        -1.0838    2.0151   -6.3965 H           1 KR2       0.0285
     44 H14        -1.8366    2.9940   -4.3209 H           1 KR2       0.0546
     45 H15        -2.4957    1.3974   -4.4423 H           1 KR2       0.0546
     46 H16        -3.6158    6.0449   -5.2958 H           1 KR2       0.0561
     47 H17        -2.3509    5.0914   -4.6170 H           1 KR2       0.0561
     48 H18        -4.0074    7.1491   -3.4002 H           1 KR2       0.0898
     49 H19        -2.1461    7.2048   -1.8624 H           1 KR2       0.2000
     50 H20        -1.7687    7.3180   -3.4828 H           1 KR2       0.2000
     51 H21        -1.4936    5.9020   -2.6617 H           1 KR2       0.2000
     52 H22        -4.8950    4.8267   -2.1592 H           1 KR2       0.0467
     53 H23        -4.9191    6.4327   -1.5243 H           1 KR2       0.0467
     54 H24        -4.3899    6.4047    0.7317 H           1 KR2       0.0522
     55 H25        -1.0291    2.9515    0.1603 H           1 KR2       0.0562
@<TRIPOS>BOND
     1     1     2  ar
     2     1     6  ar
     3     2     3  ar
     4     3     4  ar
     5     4     5  ar
     6     5     6  ar
     7     6     7   1
     8     7     8   2
     9     7     9  am
    10     9    10   1
    11     9    15   1
    12    10    11   1
    13    11    12   1
    14    12    13   1
    15    13    14   1
    16    14    15   1
    17    15    16  am
    18    16    17   2
    19    16    18   1
    20    18    19   1
    21    19    20   1
    22    19    21   1
    23    21    22   1
    24    22    23  ar
    25    22    29  ar
    26    23    24  ar
    27    24    25   1
    28    24    26  ar
    29    26    27   1
    30    26    28  ar
    31    28    29  ar
    32    29    30   1
    33     1    31   1
    34     2    32   1
    35     3    33   1
    36     4    34   1
    37     5    35   1
    38    10    36   1
    39    10    37   1
    40    11    38   1
    41    11    39   1
    42    12    40   1
    43    12    41   1
    44    13    42   1
    45    13    43   1
    46    14    44   1
    47    14    45   1
    48    18    46   1
    49    18    47   1
    50    19    48   1
    51    20    49   1
    52    20    50   1
    53    20    51   1
    54    21    52   1
    55    21    53   1
    56    23    54   1
    57    28    55   1
@<TRIPOS>SUBSTRUCTURE
     1  KR2      1

