@<TRIPOS>MOLECULE
2ole_ligand_054
    55    57
SMALL
GAST_HUCK
****
This file was generated by PARSER (from files_GN.cpp)

@<TRIPOS>ATOM
      1 CAY        -3.7741    1.6273   -8.7500 C.ar        1 KR2      -0.0419
      2 CBC        -4.1693    0.5544   -9.5699 C.ar        1 KR2      -0.0562
      3 CBB        -5.3460    0.6488  -10.3375 C.ar        1 KR2      -0.0575
      4 CBA        -6.1240    1.8217  -10.2861 C.ar        1 KR2      -0.0562
      5 CAZ        -5.7270    2.8949   -9.4663 C.ar        1 KR2      -0.0419
      6 CAX        -4.5557    2.8048   -8.6779 C.ar        1 KR2       0.0519
      7 CAW        -4.1708    3.8402   -7.8401 C.2         1 KR2       0.2286
      8 OAA        -3.1695    4.4447   -8.2020 O.2         1 KR2      -0.3825
      9 NAR        -4.7781    4.1729   -6.6857 N.am        1 KR2      -0.1656
     10 CAV        -5.9503    3.4620   -6.1991 C.3         1 KR2       0.0587
     11 CDD        -6.5997    3.9378   -4.8687 C.3         1 KR2      -0.0303
     12 CNN        -7.1519    5.3920   -4.9058 C.3         1 KR2      -0.0492
     13 CAT        -6.0717    6.5111   -4.8892 C.3         1 KR2      -0.0302
     14 CAS        -5.0198    6.4109   -6.0237 C.3         1 KR2       0.0592
     15 NAQ        -4.2815    5.1699   -5.9442 N.am        1 KR2      -0.1666
     16 CAO        -3.2312    4.9373   -5.1249 C.2         1 KR2       0.2052
     17 OAP        -2.7862    3.7946   -5.0738 O.2         1 KR2      -0.3947
     18 CAN        -2.4853    5.9056   -4.3178 C.3         1 KR2       0.0838
     19 CAL        -2.9379    6.1279   -2.8354 C.3         1 KR2       0.0010
     20 NAM        -1.8098    6.7293   -2.0979 N.4         1 KR2       0.2238
     21 CAK        -3.4155    4.8601   -2.0607 C.3         1 KR2       0.0243
     22 CAG        -4.1903    5.1648   -0.8197 C.ar        1 KR2      -0.0094
     23 CAH        -3.6456    4.8844    0.4587 C.ar        1 KR2      -0.0298
     24 CAC        -4.3894    5.1332    1.6314 C.ar        1 KR2       0.1544
     25 FAB        -3.8609    4.8629    2.7949 F           1 KR2      -0.1895
     26 CAD        -5.6917    5.6611    1.5488 C.ar        1 KR2       0.1560
     27 FAI        -6.3955    5.8846    2.6253 F           1 KR2      -0.1911
     28 CAE        -6.2442    5.9524    0.2890 C.ar        1 KR2      -0.0030
     29 CAF        -5.5007    5.7126   -0.8846 C.ar        1 KR2       0.1274
     30 FAJ        -6.0607    5.9916   -2.0331 F           1 KR2      -0.1934
     31 H1         -2.9196    1.5314   -8.1950 H           1 KR2       0.0669
     32 H2         -3.6061   -0.3007   -9.6091 H           1 KR2       0.0629
     33 H3         -5.6379   -0.1341  -10.9309 H           1 KR2       0.0653
     34 H4         -6.9779    1.8903  -10.8468 H           1 KR2       0.0629
     35 H5         -6.3009    3.7410   -9.4509 H           1 KR2       0.0669
     36 H6         -5.6879    2.4067   -6.0679 H           1 KR2       0.0545
     37 H7         -6.7355    3.5108   -6.9589 H           1 KR2       0.0545
     38 H8         -5.8804    3.8379   -4.0539 H           1 KR2       0.0285
     39 H9         -7.4333    3.2640   -4.6408 H           1 KR2       0.0285
     40 H10        -7.7940    5.5355   -4.0261 H           1 KR2       0.0267
     41 H11        -7.7817    5.5059   -5.7898 H           1 KR2       0.0267
     42 H12        -5.5697    6.4819   -3.9169 H           1 KR2       0.0285
     43 H13        -6.5768    7.4789   -4.9599 H           1 KR2       0.0285
     44 H14        -4.3655    7.2822   -5.9890 H           1 KR2       0.0546
     45 H15        -5.5495    6.4772   -6.9804 H           1 KR2       0.0546
     46 H16        -2.4666    6.8763   -4.8130 H           1 KR2       0.0561
     47 H17        -1.4369    5.5852   -4.3136 H           1 KR2       0.0561
     48 H18        -3.7347    6.8727   -2.8216 H           1 KR2       0.0898
     49 H19        -2.0199    6.8254   -1.1039 H           1 KR2       0.2000
     50 H20        -1.5793    7.6466   -2.4767 H           1 KR2       0.2000
     51 H21        -0.9879    6.1283   -2.1934 H           1 KR2       0.2000
     52 H22        -2.5394    4.2442   -1.8284 H           1 KR2       0.0467
     53 H23        -4.0573    4.2461   -2.6943 H           1 KR2       0.0467
     54 H24        -2.6985    4.4957    0.5358 H           1 KR2       0.0522
     55 H25        -7.1910    6.3367    0.2274 H           1 KR2       0.0562
@<TRIPOS>BOND
     1     1     2  ar
     2     1     6  ar
     3     2     3  ar
     4     3     4  ar
     5     4     5  ar
     6     5     6  ar
     7     6     7   1
     8     7     8   2
     9     7     9  am
    10     9    10   1
    11     9    15   1
    12    10    11   1
    13    11    12   1
    14    12    13   1
    15    13    14   1
    16    14    15   1
    17    15    16  am
    18    16    17   2
    19    16    18   1
    20    18    19   1
    21    19    20   1
    22    19    21   1
    23    21    22   1
    24    22    23  ar
    25    22    29  ar
    26    23    24  ar
    27    24    25   1
    28    24    26  ar
    29    26    27   1
    30    26    28  ar
    31    28    29  ar
    32    29    30   1
    33     1    31   1
    34     2    32   1
    35     3    33   1
    36     4    34   1
    37     5    35   1
    38    10    36   1
    39    10    37   1
    40    11    38   1
    41    11    39   1
    42    12    40   1
    43    12    41   1
    44    13    42   1
    45    13    43   1
    46    14    44   1
    47    14    45   1
    48    18    46   1
    49    18    47   1
    50    19    48   1
    51    20    49   1
    52    20    50   1
    53    20    51   1
    54    21    52   1
    55    21    53   1
    56    23    54   1
    57    28    55   1
@<TRIPOS>SUBSTRUCTURE
     1  KR2      1

