@<TRIPOS>MOLECULE
2ole_ligand_032
    55    57
SMALL
GAST_HUCK
****
This file was generated by PARSER (from files_GN.cpp)

@<TRIPOS>ATOM
      1 CAY        -3.0249    0.1594   -5.7398 C.ar        1 KR2      -0.0419
      2 CBC        -2.4850   -0.9506   -6.4196 C.ar        1 KR2      -0.0562
      3 CBB        -1.3708   -0.7879   -7.2642 C.ar        1 KR2      -0.0575
      4 CBA        -0.7883    0.4819   -7.4204 C.ar        1 KR2      -0.0562
      5 CAZ        -1.3237    1.5946   -6.7442 C.ar        1 KR2      -0.0419
      6 CAX        -2.4513    1.4395   -5.9058 C.ar        1 KR2       0.0519
      7 CAW        -2.9959    2.5296   -5.2528 C.2         1 KR2       0.2286
      8 OAA        -2.5866    2.6910   -4.1056 O.2         1 KR2      -0.3825
      9 NAR        -3.9152    3.3641   -5.7815 N.am        1 KR2      -0.1656
     10 CAV        -4.5077    3.1051   -7.0903 C.3         1 KR2       0.0587
     11 CDD        -5.6228    4.0534   -7.6253 C.3         1 KR2      -0.0303
     12 CNN        -6.9193    4.0593   -6.7816 C.3         1 KR2      -0.0492
     13 CAT        -6.7853    4.8475   -5.4575 C.3         1 KR2      -0.0302
     14 CAS        -5.6923    4.2708   -4.5197 C.3         1 KR2       0.0592
     15 NAQ        -4.3485    4.4070   -5.0611 N.am        1 KR2      -0.1666
     16 CAO        -3.5202    5.4516   -4.8246 C.2         1 KR2       0.2052
     17 OAP        -2.4052    5.4529   -5.3455 O.2         1 KR2      -0.3947
     18 CAN        -3.8155    6.6420   -4.0283 C.3         1 KR2       0.0838
     19 CAL        -3.3052    6.6199   -2.5494 C.3         1 KR2       0.0010
     20 NAM        -1.8390    6.6278   -2.4475 N.4         1 KR2       0.2238
     21 CAK        -3.8937    5.4547   -1.6947 C.3         1 KR2       0.0243
     22 CAG        -3.7062    5.5754   -0.2191 C.ar        1 KR2      -0.0094
     23 CAH        -4.3708    6.6292    0.4535 C.ar        1 KR2      -0.0298
     24 CAC        -4.3421    6.7275    1.8582 C.ar        1 KR2       0.1544
     25 FAB        -4.9971    7.6925    2.4427 F           1 KR2      -0.1895
     26 CAD        -3.6537    5.7607    2.6108 C.ar        1 KR2       0.1560
     27 FAI        -3.6474    5.8306    3.9142 F           1 KR2      -0.1911
     28 CAE        -3.0043    4.6985    1.9566 C.ar        1 KR2      -0.0030
     29 CAF        -3.0195    4.6058    0.5561 C.ar        1 KR2       0.1274
     30 FAJ        -2.4181    3.5816    0.0006 F           1 KR2      -0.1934
     31 H1         -3.8397    0.0258   -5.1377 H           1 KR2       0.0669
     32 H2         -2.9078   -1.8731   -6.3022 H           1 KR2       0.0629
     33 H3         -0.9841   -1.5940   -7.7576 H           1 KR2       0.0653
     34 H4          0.0303    0.5971   -8.0246 H           1 KR2       0.0629
     35 H5         -0.8862    2.5115   -6.8688 H           1 KR2       0.0669
     36 H6         -4.9260    2.0954   -7.0826 H           1 KR2       0.0545
     37 H7         -3.7044    3.1253   -7.8290 H           1 KR2       0.0545
     38 H8         -5.8808    3.7236   -8.6349 H           1 KR2       0.0285
     39 H9         -5.2301    5.0725   -7.7077 H           1 KR2       0.0285
     40 H10        -7.2368    3.0318   -6.5708 H           1 KR2       0.0267
     41 H11        -7.7157    4.5273   -7.3709 H           1 KR2       0.0267
     42 H12        -7.7459    4.8115   -4.9333 H           1 KR2       0.0285
     43 H13        -6.5718    5.8988   -5.6786 H           1 KR2       0.0285
     44 H14        -5.9200    3.2201   -4.3243 H           1 KR2       0.0546
     45 H15        -5.7833    4.7559   -3.5506 H           1 KR2       0.0546
     46 H16        -4.8884    6.8319   -4.0160 H           1 KR2       0.0561
     47 H17        -3.3867    7.5149   -4.5336 H           1 KR2       0.0561
     48 H18        -3.6305    7.5670   -2.1081 H           1 KR2       0.0898
     49 H19        -1.5710    6.7340   -1.4641 H           1 KR2       0.2000
     50 H20        -1.4615    7.4145   -2.9760 H           1 KR2       0.2000
     51 H21        -1.4396    5.7588   -2.8034 H           1 KR2       0.2000
     52 H22        -3.4925    4.5120   -2.0679 H           1 KR2       0.0467
     53 H23        -4.9766    5.4258   -1.8463 H           1 KR2       0.0467
     54 H24        -4.9160    7.3139   -0.0749 H           1 KR2       0.0522
     55 H25        -2.5505    3.9622    2.5066 H           1 KR2       0.0562
@<TRIPOS>BOND
     1     1     2  ar
     2     1     6  ar
     3     2     3  ar
     4     3     4  ar
     5     4     5  ar
     6     5     6  ar
     7     6     7   1
     8     7     8   2
     9     7     9  am
    10     9    10   1
    11     9    15   1
    12    10    11   1
    13    11    12   1
    14    12    13   1
    15    13    14   1
    16    14    15   1
    17    15    16  am
    18    16    17   2
    19    16    18   1
    20    18    19   1
    21    19    20   1
    22    19    21   1
    23    21    22   1
    24    22    23  ar
    25    22    29  ar
    26    23    24  ar
    27    24    25   1
    28    24    26  ar
    29    26    27   1
    30    26    28  ar
    31    28    29  ar
    32    29    30   1
    33     1    31   1
    34     2    32   1
    35     3    33   1
    36     4    34   1
    37     5    35   1
    38    10    36   1
    39    10    37   1
    40    11    38   1
    41    11    39   1
    42    12    40   1
    43    12    41   1
    44    13    42   1
    45    13    43   1
    46    14    44   1
    47    14    45   1
    48    18    46   1
    49    18    47   1
    50    19    48   1
    51    20    49   1
    52    20    50   1
    53    20    51   1
    54    21    52   1
    55    21    53   1
    56    23    54   1
    57    28    55   1
@<TRIPOS>SUBSTRUCTURE
     1  KR2      1

