@<TRIPOS>MOLECULE
2ole_ligand_018
    55    57
SMALL
GAST_HUCK
****
This file was generated by PARSER (from files_GN.cpp)

@<TRIPOS>ATOM
      1 CAY        -5.6083    1.3643   -4.0774 C.ar        1 KR2      -0.0419
      2 CBC        -6.0414    0.9270   -2.8089 C.ar        1 KR2      -0.0562
      3 CBB        -5.2538    1.1761   -1.6724 C.ar        1 KR2      -0.0575
      4 CBA        -4.0167    1.8289   -1.8065 C.ar        1 KR2      -0.0562
      5 CAZ        -3.5840    2.2706   -3.0727 C.ar        1 KR2      -0.0419
      6 CAX        -4.3874    2.0615   -4.2184 C.ar        1 KR2       0.0519
      7 CAW        -3.9681    2.4992   -5.4645 C.2         1 KR2       0.2286
      8 OAA        -3.6441    1.6021   -6.2355 O.2         1 KR2      -0.3825
      9 NAR        -3.9542    3.7859   -5.8597 N.am        1 KR2      -0.1656
     10 CAV        -3.6163    4.1754   -7.2137 C.3         1 KR2       0.0587
     11 CDD        -4.8227    4.0060   -8.1717 C.3         1 KR2      -0.0303
     12 CNN        -6.0634    4.8511   -7.7762 C.3         1 KR2      -0.0492
     13 CAT        -6.6322    4.5416   -6.3616 C.3         1 KR2      -0.0302
     14 CAS        -5.8026    5.1493   -5.1895 C.3         1 KR2       0.0592
     15 NAQ        -4.4002    4.7688   -5.0686 N.am        1 KR2      -0.1666
     16 CAO        -3.5132    5.4457   -4.3101 C.2         1 KR2       0.2052
     17 OAP        -2.3183    5.2099   -4.4599 O.2         1 KR2      -0.3947
     18 CAN        -3.8008    6.5505   -3.3825 C.3         1 KR2       0.0838
     19 CAL        -3.0554    6.5328   -2.0091 C.3         1 KR2       0.0010
     20 NAM        -1.6080    6.7210   -2.2192 N.4         1 KR2       0.2238
     21 CAK        -3.3272    5.2630   -1.1248 C.3         1 KR2       0.0243
     22 CAG        -4.2608    5.4399    0.0290 C.ar        1 KR2      -0.0094
     23 CAH        -3.8287    5.2073    1.3585 C.ar        1 KR2      -0.0298
     24 CAC        -4.7248    5.3066    2.4432 C.ar        1 KR2       0.1544
     25 FAB        -4.3078    5.0610    3.6541 F           1 KR2      -0.1895
     26 CAD        -6.0680    5.6512    2.2140 C.ar        1 KR2       0.1560
     27 FAI        -6.9076    5.7547    3.2068 F           1 KR2      -0.1911
     28 CAE        -6.5110    5.8811    0.9010 C.ar        1 KR2      -0.0030
     29 CAF        -5.6244    5.7560   -0.1851 C.ar        1 KR2       0.1274
     30 FAJ        -6.1057    5.8952   -1.3912 F           1 KR2      -0.1934
     31 H1         -6.2009    1.1781   -4.8901 H           1 KR2       0.0669
     32 H2         -6.9326    0.4380   -2.7163 H           1 KR2       0.0629
     33 H3         -5.5758    0.8705   -0.7499 H           1 KR2       0.0653
     34 H4         -3.4411    2.0029   -0.9794 H           1 KR2       0.0629
     35 H5         -2.6882    2.7561   -3.1513 H           1 KR2       0.0669
     36 H6         -2.7691    3.5907   -7.5834 H           1 KR2       0.0545
     37 H7         -3.2989    5.2238   -7.2463 H           1 KR2       0.0545
     38 H8         -5.1050    2.9515   -8.2157 H           1 KR2       0.0285
     39 H9         -4.5086    4.2993   -9.1778 H           1 KR2       0.0285
     40 H10        -6.8477    4.6499   -8.5110 H           1 KR2       0.0267
     41 H11        -5.8203    5.9148   -7.8496 H           1 KR2       0.0267
     42 H12        -6.7228    3.4618   -6.2325 H           1 KR2       0.0285
     43 H13        -7.6433    4.9520   -6.3039 H           1 KR2       0.0285
     44 H14        -6.3053    4.8918   -4.2529 H           1 KR2       0.0546
     45 H15        -5.8664    6.2350   -5.3122 H           1 KR2       0.0546
     46 H16        -4.8653    6.5952   -3.1555 H           1 KR2       0.0561
     47 H17        -3.5573    7.4870   -3.8952 H           1 KR2       0.0561
     48 H18        -3.3755    7.4246   -1.4587 H           1 KR2       0.0898
     49 H19        -1.1376    6.7846   -1.3166 H           1 KR2       0.2000
     50 H20        -1.4381    7.5850   -2.7363 H           1 KR2       0.2000
     51 H21        -1.2228    5.9303   -2.7341 H           1 KR2       0.2000
     52 H22        -2.3727    4.8691   -0.7649 H           1 KR2       0.0467
     53 H23        -3.7522    4.4738   -1.7483 H           1 KR2       0.0467
     54 H24        -2.8577    4.9500    1.5465 H           1 KR2       0.0522
     55 H25        -7.4857    6.1214    0.7236 H           1 KR2       0.0562
@<TRIPOS>BOND
     1     1     2  ar
     2     1     6  ar
     3     2     3  ar
     4     3     4  ar
     5     4     5  ar
     6     5     6  ar
     7     6     7   1
     8     7     8   2
     9     7     9  am
    10     9    10   1
    11     9    15   1
    12    10    11   1
    13    11    12   1
    14    12    13   1
    15    13    14   1
    16    14    15   1
    17    15    16  am
    18    16    17   2
    19    16    18   1
    20    18    19   1
    21    19    20   1
    22    19    21   1
    23    21    22   1
    24    22    23  ar
    25    22    29  ar
    26    23    24  ar
    27    24    25   1
    28    24    26  ar
    29    26    27   1
    30    26    28  ar
    31    28    29  ar
    32    29    30   1
    33     1    31   1
    34     2    32   1
    35     3    33   1
    36     4    34   1
    37     5    35   1
    38    10    36   1
    39    10    37   1
    40    11    38   1
    41    11    39   1
    42    12    40   1
    43    12    41   1
    44    13    42   1
    45    13    43   1
    46    14    44   1
    47    14    45   1
    48    18    46   1
    49    18    47   1
    50    19    48   1
    51    20    49   1
    52    20    50   1
    53    20    51   1
    54    21    52   1
    55    21    53   1
    56    23    54   1
    57    28    55   1
@<TRIPOS>SUBSTRUCTURE
     1  KR2      1

