@<TRIPOS>MOLECULE
2ole_ligand_019
    55    57
SMALL
GAST_HUCK
****
This file was generated by PARSER (from files_GN.cpp)

@<TRIPOS>ATOM
      1 CAY        -3.6413    0.9721   -8.1206 C.ar        1 KR2      -0.0419
      2 CBC        -3.0939   -0.1292   -8.8049 C.ar        1 KR2      -0.0562
      3 CBB        -1.7536   -0.5033   -8.5710 C.ar        1 KR2      -0.0575
      4 CBA        -0.9695    0.2257   -7.6667 C.ar        1 KR2      -0.0562
      5 CAZ        -1.5194    1.3256   -6.9807 C.ar        1 KR2      -0.0419
      6 CAX        -2.8677    1.6952   -7.1876 C.ar        1 KR2       0.0519
      7 CAW        -3.4218    2.7805   -6.5061 C.2         1 KR2       0.2286
      8 OAA        -3.7947    3.7019   -7.2169 O.2         1 KR2      -0.3825
      9 NAR        -3.5886    2.8497   -5.1724 N.am        1 KR2      -0.1656
     10 CAV        -3.4161    1.7362   -4.2582 C.3         1 KR2       0.0587
     11 CDD        -4.6326    0.7743   -4.2929 C.3         1 KR2      -0.0303
     12 CNN        -5.9559    1.4357   -3.8278 C.3         1 KR2      -0.0492
     13 CAT        -6.3702    2.6857   -4.6546 C.3         1 KR2      -0.0302
     14 CAS        -5.5358    3.9594   -4.3421 C.3         1 KR2       0.0592
     15 NAQ        -4.1115    3.9572   -4.6339 N.am        1 KR2      -0.1666
     16 CAO        -3.2899    4.9869   -4.3376 C.2         1 KR2       0.2052
     17 OAP        -2.0999    4.8968   -4.6179 O.2         1 KR2      -0.3947
     18 CAN        -3.6670    6.2405   -3.6700 C.3         1 KR2       0.0838
     19 CAL        -3.1076    6.4185   -2.2204 C.3         1 KR2       0.0010
     20 NAM        -1.6733    6.7408   -2.2896 N.4         1 KR2       0.2238
     21 CAK        -3.3498    5.2234   -1.2280 C.3         1 KR2       0.0243
     22 CAG        -4.3069    5.4903   -0.1117 C.ar        1 KR2      -0.0094
     23 CAH        -3.8848    5.3746    1.2391 C.ar        1 KR2      -0.0298
     24 CAC        -4.7952    5.5327    2.3058 C.ar        1 KR2       0.1544
     25 FAB        -4.3722    5.4079    3.5347 F           1 KR2      -0.1895
     26 CAD        -6.1466    5.8138    2.0400 C.ar        1 KR2       0.1560
     27 FAI        -7.0064    5.9652    3.0101 F           1 KR2      -0.1911
     28 CAE        -6.5784    5.9485    0.7130 C.ar        1 KR2      -0.0030
     29 CAF        -5.6776    5.7917   -0.3564 C.ar        1 KR2       0.1274
     30 FAJ        -6.1609    5.9306   -1.5584 F           1 KR2      -0.1934
     31 H1         -4.6200    1.2219   -8.2998 H           1 KR2       0.0669
     32 H2         -3.6594   -0.6582   -9.4682 H           1 KR2       0.0629
     33 H3         -1.3540   -1.3052   -9.0674 H           1 KR2       0.0653
     34 H4          0.0056   -0.0389   -7.5046 H           1 KR2       0.0629
     35 H5         -0.9279    1.8513   -6.3317 H           1 KR2       0.0669
     36 H6         -3.2905    2.0940   -3.2307 H           1 KR2       0.0545
     37 H7         -2.5110    1.1740   -4.4848 H           1 KR2       0.0545
     38 H8         -4.4194   -0.0752   -3.6389 H           1 KR2       0.0285
     39 H9         -4.7632    0.3843   -5.3024 H           1 KR2       0.0285
     40 H10        -5.8765    1.6980   -2.7705 H           1 KR2       0.0267
     41 H11        -6.7514    0.6908   -3.9130 H           1 KR2       0.0267
     42 H12        -7.4162    2.9070   -4.4241 H           1 KR2       0.0285
     43 H13        -6.3203    2.4639   -5.7243 H           1 KR2       0.0285
     44 H14        -5.6560    4.1512   -3.2792 H           1 KR2       0.0546
     45 H15        -5.9970    4.7838   -4.8936 H           1 KR2       0.0546
     46 H16        -4.7447    6.3549   -3.6340 H           1 KR2       0.0561
     47 H17        -3.3166    7.0713   -4.2911 H           1 KR2       0.0561
     48 H18        -3.5695    7.3214   -1.8086 H           1 KR2       0.0898
     49 H19        -1.3136    6.9282   -1.3532 H           1 KR2       0.2000
     50 H20        -1.5330    7.5676   -2.8693 H           1 KR2       0.2000
     51 H21        -1.1667    5.9554   -2.6948 H           1 KR2       0.2000
     52 H22        -2.3863    4.9111   -0.8174 H           1 KR2       0.0467
     53 H23        -3.7239    4.3530   -1.7591 H           1 KR2       0.0467
     54 H24        -2.9085    5.1600    1.4548 H           1 KR2       0.0522
     55 H25        -7.5609    6.1586    0.5144 H           1 KR2       0.0562
@<TRIPOS>BOND
     1     1     2  ar
     2     1     6  ar
     3     2     3  ar
     4     3     4  ar
     5     4     5  ar
     6     5     6  ar
     7     6     7   1
     8     7     8   2
     9     7     9  am
    10     9    10   1
    11     9    15   1
    12    10    11   1
    13    11    12   1
    14    12    13   1
    15    13    14   1
    16    14    15   1
    17    15    16  am
    18    16    17   2
    19    16    18   1
    20    18    19   1
    21    19    20   1
    22    19    21   1
    23    21    22   1
    24    22    23  ar
    25    22    29  ar
    26    23    24  ar
    27    24    25   1
    28    24    26  ar
    29    26    27   1
    30    26    28  ar
    31    28    29  ar
    32    29    30   1
    33     1    31   1
    34     2    32   1
    35     3    33   1
    36     4    34   1
    37     5    35   1
    38    10    36   1
    39    10    37   1
    40    11    38   1
    41    11    39   1
    42    12    40   1
    43    12    41   1
    44    13    42   1
    45    13    43   1
    46    14    44   1
    47    14    45   1
    48    18    46   1
    49    18    47   1
    50    19    48   1
    51    20    49   1
    52    20    50   1
    53    20    51   1
    54    21    52   1
    55    21    53   1
    56    23    54   1
    57    28    55   1
@<TRIPOS>SUBSTRUCTURE
     1  KR2      1

