@<TRIPOS>MOLECULE
2ole_ligand_035
    55    57
SMALL
GAST_HUCK
****
This file was generated by PARSER (from files_GN.cpp)

@<TRIPOS>ATOM
      1 CAY        -6.1504    4.6860   -7.0320 C.ar        1 KR2      -0.0419
      2 CBC        -6.6088    3.3698   -6.8441 C.ar        1 KR2      -0.0562
      3 CBB        -6.1804    2.3423   -7.7043 C.ar        1 KR2      -0.0575
      4 CBA        -5.2989    2.6398   -8.7610 C.ar        1 KR2      -0.0562
      5 CAZ        -4.8366    3.9521   -8.9466 C.ar        1 KR2      -0.0419
      6 CAX        -5.2438    4.9916   -8.0745 C.ar        1 KR2       0.0519
      7 CAW        -4.8061    6.2928   -8.2780 C.2         1 KR2       0.2286
      8 OAA        -5.1899    6.8030   -9.3247 O.2         1 KR2      -0.3825
      9 NAR        -3.9879    6.9656   -7.4449 N.am        1 KR2      -0.1656
     10 CAV        -3.5385    8.3179   -7.7118 C.3         1 KR2       0.0587
     11 CDD        -2.3584    8.3341   -8.7119 C.3         1 KR2      -0.0303
     12 CNN        -1.1011    7.5946   -8.1847 C.3         1 KR2      -0.0492
     13 CAT        -1.3249    6.0899   -7.8641 C.3         1 KR2      -0.0302
     14 CAS        -2.0964    5.8129   -6.5439 C.3         1 KR2       0.0592
     15 NAQ        -3.4333    6.3632   -6.3896 N.am        1 KR2      -0.1666
     16 CAO        -4.1082    6.3222   -5.2232 C.2         1 KR2       0.2052
     17 OAP        -5.1699    6.9368   -5.1390 O.2         1 KR2      -0.3947
     18 CAN        -3.7785    5.5030   -4.0561 C.3         1 KR2       0.0838
     19 CAL        -3.5846    6.2957   -2.7110 C.3         1 KR2       0.0010
     20 NAM        -2.1512    6.5701   -2.4790 N.4         1 KR2       0.2238
     21 CAK        -4.3182    5.6441   -1.4816 C.3         1 KR2       0.0243
     22 CAG        -3.4482    5.0605   -0.4203 C.ar        1 KR2      -0.0094
     23 CAH        -3.5477    5.5293    0.9128 C.ar        1 KR2      -0.0298
     24 CAC        -2.7271    5.0092    1.9259 C.ar        1 KR2       0.1544
     25 FAB        -2.8374    5.4797    3.1388 F           1 KR2      -0.1895
     26 CAD        -1.7767    4.0126    1.6158 C.ar        1 KR2       0.1560
     27 FAI        -0.9732    3.5454    2.5351 F           1 KR2      -0.1911
     28 CAE        -1.6816    3.5253    0.3015 C.ar        1 KR2      -0.0030
     29 CAF        -2.5215    4.0269   -0.7065 C.ar        1 KR2       0.1274
     30 FAJ        -2.4190    3.5155   -1.9037 F           1 KR2      -0.1934
     31 H1         -6.4940    5.4213   -6.4090 H           1 KR2       0.0669
     32 H2         -7.2601    3.1533   -6.0843 H           1 KR2       0.0629
     33 H3         -6.5154    1.3861   -7.5726 H           1 KR2       0.0653
     34 H4         -4.9996    1.8953   -9.3966 H           1 KR2       0.0629
     35 H5         -4.2025    4.1504   -9.7252 H           1 KR2       0.0669
     36 H6         -3.2190    8.8086   -6.7862 H           1 KR2       0.0545
     37 H7         -4.3545    8.9236   -8.1081 H           1 KR2       0.0545
     38 H8         -2.0917    9.3743   -8.9134 H           1 KR2       0.0285
     39 H9         -2.6712    7.8868   -9.6604 H           1 KR2       0.0285
     40 H10        -0.7315    8.1100   -7.2954 H           1 KR2       0.0267
     41 H11        -0.3244    7.6749   -8.9512 H           1 KR2       0.0267
     42 H12        -0.3454    5.6180   -7.7652 H           1 KR2       0.0285
     43 H13        -1.8351    5.6077   -8.7001 H           1 KR2       0.0285
     44 H14        -1.4718    6.1960   -5.7294 H           1 KR2       0.0546
     45 H15        -2.1645    4.7270   -6.4332 H           1 KR2       0.0546
     46 H16        -2.8975    4.8855   -4.2221 H           1 KR2       0.0561
     47 H17        -4.6084    4.7981   -3.9634 H           1 KR2       0.0561
     48 H18        -4.0281    7.2879   -2.8308 H           1 KR2       0.0898
     49 H19        -2.0076    6.9495   -1.5374 H           1 KR2       0.2000
     50 H20        -1.8155    7.2476   -3.1691 H           1 KR2       0.2000
     51 H21        -1.6022    5.7083   -2.5679 H           1 KR2       0.2000
     52 H22        -5.0004    4.8547   -1.7992 H           1 KR2       0.0467
     53 H23        -4.9642    6.4100   -1.0426 H           1 KR2       0.0467
     54 H24        -4.2149    6.2685    1.1540 H           1 KR2       0.0522
     55 H25        -0.9962    2.7993    0.0762 H           1 KR2       0.0562
@<TRIPOS>BOND
     1     1     2  ar
     2     1     6  ar
     3     2     3  ar
     4     3     4  ar
     5     4     5  ar
     6     5     6  ar
     7     6     7   1
     8     7     8   2
     9     7     9  am
    10     9    10   1
    11     9    15   1
    12    10    11   1
    13    11    12   1
    14    12    13   1
    15    13    14   1
    16    14    15   1
    17    15    16  am
    18    16    17   2
    19    16    18   1
    20    18    19   1
    21    19    20   1
    22    19    21   1
    23    21    22   1
    24    22    23  ar
    25    22    29  ar
    26    23    24  ar
    27    24    25   1
    28    24    26  ar
    29    26    27   1
    30    26    28  ar
    31    28    29  ar
    32    29    30   1
    33     1    31   1
    34     2    32   1
    35     3    33   1
    36     4    34   1
    37     5    35   1
    38    10    36   1
    39    10    37   1
    40    11    38   1
    41    11    39   1
    42    12    40   1
    43    12    41   1
    44    13    42   1
    45    13    43   1
    46    14    44   1
    47    14    45   1
    48    18    46   1
    49    18    47   1
    50    19    48   1
    51    20    49   1
    52    20    50   1
    53    20    51   1
    54    21    52   1
    55    21    53   1
    56    23    54   1
    57    28    55   1
@<TRIPOS>SUBSTRUCTURE
     1  KR2      1

