@<TRIPOS>MOLECULE
2ole_ligand_074
    55    57
SMALL
GAST_HUCK
****
This file was generated by PARSER (from files_GN.cpp)

@<TRIPOS>ATOM
      1 CAY        -3.4664    9.1468   -8.4044 C.ar        1 KR2      -0.0419
      2 CBC        -2.7418   10.0185   -9.2383 C.ar        1 KR2      -0.0562
      3 CBB        -1.8460    9.5007  -10.1916 C.ar        1 KR2      -0.0575
      4 CBA        -1.6762    8.1087  -10.3125 C.ar        1 KR2      -0.0562
      5 CAZ        -2.4080    7.2335   -9.4865 C.ar        1 KR2      -0.0419
      6 CAX        -3.3099    7.7478   -8.5273 C.ar        1 KR2       0.0519
      7 CAW        -4.0301    6.8991   -7.7051 C.2         1 KR2       0.2286
      8 OAA        -5.1196    6.5590   -8.1499 O.2         1 KR2      -0.3825
      9 NAR        -3.6238    6.4868   -6.4873 N.am        1 KR2      -0.1656
     10 CAV        -2.2975    6.7998   -5.9699 C.3         1 KR2       0.0587
     11 CDD        -1.8028    5.9305   -4.7813 C.3         1 KR2      -0.0303
     12 CNN        -1.6769    4.4190   -5.1319 C.3         1 KR2      -0.0492
     13 CAT        -2.8192    3.8323   -6.0121 C.3         1 KR2      -0.0302
     14 CAS        -4.2296    4.3410   -5.6003 C.3         1 KR2       0.0592
     15 NAQ        -4.4686    5.7748   -5.7236 N.am        1 KR2      -0.1666
     16 CAO        -5.4900    6.4093   -5.1050 C.2         1 KR2       0.2052
     17 OAP        -5.5211    7.6357   -5.1345 O.2         1 KR2      -0.3947
     18 CAN        -6.5727    5.7857   -4.3370 C.3         1 KR2       0.0838
     19 CAL        -8.0237    6.1614   -4.7939 C.3         1 KR2       0.0010
     20 NAM        -8.4282    7.4370   -4.1728 N.4         1 KR2       0.2238
     21 CAK        -9.0963    5.0639   -4.4953 C.3         1 KR2       0.0243
     22 CAG        -9.1520    3.9916   -5.5396 C.ar        1 KR2      -0.0094
     23 CAH        -9.9720    4.1849   -6.6777 C.ar        1 KR2      -0.0298
     24 CAC       -10.0536    3.2155   -7.6962 C.ar        1 KR2       0.1544
     25 FAB       -10.8447    3.4104   -8.7179 F           1 KR2      -0.1895
     26 CAD        -9.2781    2.0450   -7.6116 C.ar        1 KR2       0.1560
     27 FAI        -9.3317    1.1420   -8.5547 F           1 KR2      -0.1911
     28 CAE        -8.4479    1.8398   -6.4944 C.ar        1 KR2      -0.0030
     29 CAF        -8.4044    2.7888   -5.4541 C.ar        1 KR2       0.1274
     30 FAJ        -7.6599    2.5156   -4.4180 F           1 KR2      -0.1934
     31 H1         -4.1111    9.5415   -7.7143 H           1 KR2       0.0669
     32 H2         -2.8593   11.0314   -9.1443 H           1 KR2       0.0629
     33 H3         -1.3162   10.1354  -10.7935 H           1 KR2       0.0653
     34 H4         -1.0185    7.7329  -11.0006 H           1 KR2       0.0629
     35 H5         -2.2701    6.2231   -9.5852 H           1 KR2       0.0669
     36 H6         -2.2947    7.8518   -5.6659 H           1 KR2       0.0545
     37 H7         -1.5507    6.6832   -6.7622 H           1 KR2       0.0545
     38 H8         -2.4866    6.0596   -3.9399 H           1 KR2       0.0285
     39 H9         -0.8257    6.2985   -4.4572 H           1 KR2       0.0285
     40 H10        -1.6310    3.8542   -4.1971 H           1 KR2       0.0267
     41 H11        -0.7324    4.2544   -5.6530 H           1 KR2       0.0267
     42 H12        -2.7977    2.7392   -5.9383 H           1 KR2       0.0285
     43 H13        -2.6400    4.0820   -7.0628 H           1 KR2       0.0285
     44 H14        -4.3496    4.0314   -4.5589 H           1 KR2       0.0546
     45 H15        -4.9773    3.8131   -6.1989 H           1 KR2       0.0546
     46 H16        -6.4433    6.0543   -3.2816 H           1 KR2       0.0561
     47 H17        -6.4883    4.7079   -4.3882 H           1 KR2       0.0561
     48 H18        -8.0236    6.3311   -5.8704 H           1 KR2       0.0898
     49 H19        -9.3743    7.6844   -4.4674 H           1 KR2       0.2000
     50 H20        -7.7885    8.1783   -4.4597 H           1 KR2       0.2000
     51 H21        -8.4031    7.3552   -3.1545 H           1 KR2       0.2000
     52 H22       -10.0851    5.5311   -4.4292 H           1 KR2       0.0467
     53 H23        -8.9129    4.6437   -3.5068 H           1 KR2       0.0467
     54 H24       -10.5273    5.0389   -6.7666 H           1 KR2       0.0522
     55 H25        -7.8830    0.9878   -6.4360 H           1 KR2       0.0562
@<TRIPOS>BOND
     1     1     2  ar
     2     1     6  ar
     3     2     3  ar
     4     3     4  ar
     5     4     5  ar
     6     5     6  ar
     7     6     7   1
     8     7     8   2
     9     7     9  am
    10     9    10   1
    11     9    15   1
    12    10    11   1
    13    11    12   1
    14    12    13   1
    15    13    14   1
    16    14    15   1
    17    15    16  am
    18    16    17   2
    19    16    18   1
    20    18    19   1
    21    19    20   1
    22    19    21   1
    23    21    22   1
    24    22    23  ar
    25    22    29  ar
    26    23    24  ar
    27    24    25   1
    28    24    26  ar
    29    26    27   1
    30    26    28  ar
    31    28    29  ar
    32    29    30   1
    33     1    31   1
    34     2    32   1
    35     3    33   1
    36     4    34   1
    37     5    35   1
    38    10    36   1
    39    10    37   1
    40    11    38   1
    41    11    39   1
    42    12    40   1
    43    12    41   1
    44    13    42   1
    45    13    43   1
    46    14    44   1
    47    14    45   1
    48    18    46   1
    49    18    47   1
    50    19    48   1
    51    20    49   1
    52    20    50   1
    53    20    51   1
    54    21    52   1
    55    21    53   1
    56    23    54   1
    57    28    55   1
@<TRIPOS>SUBSTRUCTURE
     1  KR2      1

