@<TRIPOS>MOLECULE
2ole_ligand_048
    55    57
SMALL
GAST_HUCK
****
This file was generated by PARSER (from files_GN.cpp)

@<TRIPOS>ATOM
      1 CAY        -3.7538    7.8569   -7.8799 C.ar        1 KR2      -0.0419
      2 CBC        -2.6795    8.6868   -8.2541 C.ar        1 KR2      -0.0562
      3 CBB        -1.9324    8.3994   -9.4114 C.ar        1 KR2      -0.0575
      4 CBA        -2.2759    7.2933  -10.2063 C.ar        1 KR2      -0.0562
      5 CAZ        -3.3551    6.4677   -9.8401 C.ar        1 KR2      -0.0419
      6 CAX        -4.0967    6.7278   -8.6619 C.ar        1 KR2       0.0519
      7 CAW        -5.1442    5.8881   -8.2990 C.2         1 KR2       0.2286
      8 OAA        -6.0454    5.8007   -9.1234 O.2         1 KR2      -0.3825
      9 NAR        -5.1511    5.1070   -7.1981 N.am        1 KR2      -0.1656
     10 CAV        -6.1673    4.0956   -6.9807 C.3         1 KR2       0.0587
     11 CDD        -5.9048    2.8304   -7.8394 C.3         1 KR2      -0.0303
     12 CNN        -4.5347    2.1501   -7.5720 C.3         1 KR2      -0.0492
     13 CAT        -3.2965    3.0628   -7.7980 C.3         1 KR2      -0.0302
     14 CAS        -3.0567    4.0920   -6.6537 C.3         1 KR2       0.0592
     15 NAQ        -4.1056    5.0617   -6.3698 N.am        1 KR2      -0.1666
     16 CAO        -4.0913    5.8534   -5.2747 C.2         1 KR2       0.2052
     17 OAP        -5.0628    6.5745   -5.0643 O.2         1 KR2      -0.3947
     18 CAN        -2.9578    5.9951   -4.3583 C.3         1 KR2       0.0838
     19 CAL        -3.2227    6.6026   -2.9435 C.3         1 KR2       0.0010
     20 NAM        -1.9401    6.6946   -2.2242 N.4         1 KR2       0.2238
     21 CAK        -4.2986    5.8680   -2.0829 C.3         1 KR2       0.0243
     22 CAG        -4.1031    4.3947   -1.9417 C.ar        1 KR2      -0.0094
     23 CAH        -4.8424    3.5038   -2.7582 C.ar        1 KR2      -0.0298
     24 CAC        -4.6693    2.1115   -2.6569 C.ar        1 KR2       0.1544
     25 FAB        -5.3620    1.3183   -3.4292 F           1 KR2      -0.1895
     26 CAD        -3.7537    1.5863   -1.7247 C.ar        1 KR2       0.1560
     27 FAI        -3.5858    0.2963   -1.6117 F           1 KR2      -0.1911
     28 CAE        -3.0170    2.4587   -0.9023 C.ar        1 KR2      -0.0030
     29 CAF        -3.1873    3.8516   -1.0068 C.ar        1 KR2       0.1274
     30 FAJ        -2.4896    4.6162   -0.2086 F           1 KR2      -0.1934
     31 H1         -4.2893    8.0972   -7.0421 H           1 KR2       0.0669
     32 H2         -2.4446    9.5006   -7.6829 H           1 KR2       0.0629
     33 H3         -1.1441    8.9969   -9.6761 H           1 KR2       0.0653
     34 H4         -1.7389    7.0872  -11.0514 H           1 KR2       0.0629
     35 H5         -3.5823    5.6634  -10.4315 H           1 KR2       0.0669
     36 H6         -7.1597    4.4951   -7.2092 H           1 KR2       0.0545
     37 H7         -6.1953    3.7962   -5.9284 H           1 KR2       0.0545
     38 H8         -5.9717    3.0891   -8.8995 H           1 KR2       0.0285
     39 H9         -6.6961    2.1044   -7.6329 H           1 KR2       0.0285
     40 H10        -4.4532    1.2948   -8.2481 H           1 KR2       0.0267
     41 H11        -4.5179    1.7582   -6.5517 H           1 KR2       0.0267
     42 H12        -3.3871    3.5809   -8.7543 H           1 KR2       0.0285
     43 H13        -2.4095    2.4258   -7.8643 H           1 KR2       0.0285
     44 H14        -2.1378    4.6411   -6.8804 H           1 KR2       0.0546
     45 H15        -2.8754    3.4877   -5.7612 H           1 KR2       0.0546
     46 H16        -2.2168    6.6175   -4.8686 H           1 KR2       0.0561
     47 H17        -2.4939    5.0254   -4.1827 H           1 KR2       0.0561
     48 H18        -3.5597    7.6336   -3.0795 H           1 KR2       0.0898
     49 H19        -2.0869    6.8373   -1.2239 H           1 KR2       0.2000
     50 H20        -1.4192    7.4936   -2.5850 H           1 KR2       0.2000
     51 H21        -1.3955    5.8428   -2.3650 H           1 KR2       0.2000
     52 H22        -5.2806    6.0702   -2.5178 H           1 KR2       0.0467
     53 H23        -4.3342    6.3221   -1.0867 H           1 KR2       0.0467
     54 H24        -5.5127    3.8655   -3.4398 H           1 KR2       0.0522
     55 H25        -2.3524    2.0756   -0.2267 H           1 KR2       0.0562
@<TRIPOS>BOND
     1     1     2  ar
     2     1     6  ar
     3     2     3  ar
     4     3     4  ar
     5     4     5  ar
     6     5     6  ar
     7     6     7   1
     8     7     8   2
     9     7     9  am
    10     9    10   1
    11     9    15   1
    12    10    11   1
    13    11    12   1
    14    12    13   1
    15    13    14   1
    16    14    15   1
    17    15    16  am
    18    16    17   2
    19    16    18   1
    20    18    19   1
    21    19    20   1
    22    19    21   1
    23    21    22   1
    24    22    23  ar
    25    22    29  ar
    26    23    24  ar
    27    24    25   1
    28    24    26  ar
    29    26    27   1
    30    26    28  ar
    31    28    29  ar
    32    29    30   1
    33     1    31   1
    34     2    32   1
    35     3    33   1
    36     4    34   1
    37     5    35   1
    38    10    36   1
    39    10    37   1
    40    11    38   1
    41    11    39   1
    42    12    40   1
    43    12    41   1
    44    13    42   1
    45    13    43   1
    46    14    44   1
    47    14    45   1
    48    18    46   1
    49    18    47   1
    50    19    48   1
    51    20    49   1
    52    20    50   1
    53    20    51   1
    54    21    52   1
    55    21    53   1
    56    23    54   1
    57    28    55   1
@<TRIPOS>SUBSTRUCTURE
     1  KR2      1

