@<TRIPOS>MOLECULE
2ole_ligand_027
    55    57
SMALL
GAST_HUCK
****
This file was generated by PARSER (from files_GN.cpp)

@<TRIPOS>ATOM
      1 CAY        -5.3053    2.1181   -3.1834 C.ar        1 KR2      -0.0419
      2 CBC        -5.1101    1.8229   -1.8176 C.ar        1 KR2      -0.0562
      3 CBB        -4.1589    0.8646   -1.4336 C.ar        1 KR2      -0.0575
      4 CBA        -3.4239    0.1765   -2.4171 C.ar        1 KR2      -0.0562
      5 CAZ        -3.6116    0.4737   -3.7800 C.ar        1 KR2      -0.0419
      6 CAX        -4.5410    1.4641   -4.1744 C.ar        1 KR2       0.0519
      7 CAW        -4.7318    1.7577   -5.5122 C.2         1 KR2       0.2286
      8 OAA        -5.5915    1.0788   -6.0621 O.2         1 KR2      -0.3825
      9 NAR        -4.0218    2.6724   -6.1992 N.am        1 KR2      -0.1656
     10 CAV        -4.2167    2.8191   -7.6338 C.3         1 KR2       0.0587
     11 CDD        -3.2895    3.8011   -8.4062 C.3         1 KR2      -0.0303
     12 CNN        -1.7833    3.4268   -8.3468 C.3         1 KR2      -0.0492
     13 CAT        -1.0855    3.7329   -6.9942 C.3         1 KR2      -0.0302
     14 CAS        -1.7375    3.0225   -5.7795 C.3         1 KR2       0.0592
     15 NAQ        -3.1132    3.4473   -5.5968 N.am        1 KR2      -0.1666
     16 CAO        -3.4825    4.6290   -5.0564 C.2         1 KR2       0.2052
     17 OAP        -4.6707    4.9450   -5.0931 O.2         1 KR2      -0.3947
     18 CAN        -2.6096    5.6371   -4.4405 C.3         1 KR2       0.0838
     19 CAL        -2.9418    6.0022   -2.9558 C.3         1 KR2       0.0010
     20 NAM        -1.8231    6.7847   -2.4017 N.4         1 KR2       0.2238
     21 CAK        -3.2561    4.7620   -2.0618 C.3         1 KR2       0.0243
     22 CAG        -3.3233    5.0282   -0.5952 C.ar        1 KR2      -0.0094
     23 CAH        -4.2457    5.9793   -0.0903 C.ar        1 KR2      -0.0298
     24 CAC        -4.3079    6.2736    1.2863 C.ar        1 KR2       0.1544
     25 FAB        -5.1599    7.1640    1.7253 F           1 KR2      -0.1895
     26 CAD        -3.4539    5.6051    2.1845 C.ar        1 KR2       0.1560
     27 FAI        -3.5004    5.8705    3.4638 F           1 KR2      -0.1911
     28 CAE        -2.5535    4.6365    1.7026 C.ar        1 KR2      -0.0030
     29 CAF        -2.4894    4.3464    0.3260 C.ar        1 KR2       0.1274
     30 FAJ        -1.6191    3.4484   -0.0605 F           1 KR2      -0.1934
     31 H1         -6.0027    2.8200   -3.4495 H           1 KR2       0.0669
     32 H2         -5.6574    2.3081   -1.1042 H           1 KR2       0.0629
     33 H3         -4.0134    0.6546   -0.4444 H           1 KR2       0.0653
     34 H4         -2.7645   -0.5557   -2.1377 H           1 KR2       0.0629
     35 H5         -3.0920   -0.0576   -4.4856 H           1 KR2       0.0669
     36 H6         -5.2489    3.1445   -7.8041 H           1 KR2       0.0545
     37 H7         -4.1005    1.8367   -8.1024 H           1 KR2       0.0545
     38 H8         -3.4348    4.8157   -8.0323 H           1 KR2       0.0285
     39 H9         -3.5998    3.7940   -9.4537 H           1 KR2       0.0285
     40 H10        -1.2628    3.9941   -9.1225 H           1 KR2       0.0267
     41 H11        -1.6601    2.3664   -8.5876 H           1 KR2       0.0267
     42 H12        -1.0826    4.8134   -6.8357 H           1 KR2       0.0285
     43 H13        -0.0418    3.4123   -7.0606 H           1 KR2       0.0285
     44 H14        -1.1508    3.1907   -4.8745 H           1 KR2       0.0546
     45 H15        -1.6858    1.9438   -5.9594 H           1 KR2       0.0546
     46 H16        -2.6743    6.5485   -5.0446 H           1 KR2       0.0561
     47 H17        -1.5678    5.3331   -4.4739 H           1 KR2       0.0561
     48 H18        -3.8205    6.6584   -2.9554 H           1 KR2       0.0898
     49 H19        -1.9758    7.0001   -1.4115 H           1 KR2       0.2000
     50 H20        -1.7307    7.6554   -2.9218 H           1 KR2       0.2000
     51 H21        -0.9611    6.2468   -2.4923 H           1 KR2       0.2000
     52 H22        -2.5177    3.9874   -2.2885 H           1 KR2       0.0467
     53 H23        -4.2285    4.3686   -2.3666 H           1 KR2       0.0467
     54 H24        -4.8722    6.4784   -0.7261 H           1 KR2       0.0522
     55 H25        -1.9398    4.1428    2.3543 H           1 KR2       0.0562
@<TRIPOS>BOND
     1     1     2  ar
     2     1     6  ar
     3     2     3  ar
     4     3     4  ar
     5     4     5  ar
     6     5     6  ar
     7     6     7   1
     8     7     8   2
     9     7     9  am
    10     9    10   1
    11     9    15   1
    12    10    11   1
    13    11    12   1
    14    12    13   1
    15    13    14   1
    16    14    15   1
    17    15    16  am
    18    16    17   2
    19    16    18   1
    20    18    19   1
    21    19    20   1
    22    19    21   1
    23    21    22   1
    24    22    23  ar
    25    22    29  ar
    26    23    24  ar
    27    24    25   1
    28    24    26  ar
    29    26    27   1
    30    26    28  ar
    31    28    29  ar
    32    29    30   1
    33     1    31   1
    34     2    32   1
    35     3    33   1
    36     4    34   1
    37     5    35   1
    38    10    36   1
    39    10    37   1
    40    11    38   1
    41    11    39   1
    42    12    40   1
    43    12    41   1
    44    13    42   1
    45    13    43   1
    46    14    44   1
    47    14    45   1
    48    18    46   1
    49    18    47   1
    50    19    48   1
    51    20    49   1
    52    20    50   1
    53    20    51   1
    54    21    52   1
    55    21    53   1
    56    23    54   1
    57    28    55   1
@<TRIPOS>SUBSTRUCTURE
     1  KR2      1

