@<TRIPOS>MOLECULE
2ole_ligand_022
    55    57
SMALL
GAST_HUCK
****
This file was generated by PARSER (from files_GN.cpp)

@<TRIPOS>ATOM
      1 CAY        -3.3401    1.4609   -8.6895 C.ar        1 KR2      -0.0419
      2 CBC        -2.8728    0.2385   -9.2090 C.ar        1 KR2      -0.0562
      3 CBB        -1.7015   -0.3457   -8.6949 C.ar        1 KR2      -0.0575
      4 CBA        -0.9970    0.2908   -7.6577 C.ar        1 KR2      -0.0562
      5 CAZ        -1.4640    1.5104   -7.1320 C.ar        1 KR2      -0.0419
      6 CAX        -2.6386    2.1082   -7.6461 C.ar        1 KR2       0.0519
      7 CAW        -3.0789    3.3245   -7.1439 C.2         1 KR2       0.2286
      8 OAA        -2.4492    4.2973   -7.5441 O.2         1 KR2      -0.3825
      9 NAR        -4.0615    3.4757   -6.2332 N.am        1 KR2      -0.1656
     10 CAV        -4.8041    2.3331   -5.7189 C.3         1 KR2       0.0587
     11 CDD        -5.9408    2.5906   -4.6894 C.3         1 KR2      -0.0303
     12 CNN        -7.0991    3.4665   -5.2384 C.3         1 KR2      -0.0492
     13 CAT        -6.7723    4.9791   -5.3311 C.3         1 KR2      -0.0302
     14 CAS        -5.5580    5.3035   -6.2376 C.3         1 KR2       0.0592
     15 NAQ        -4.3395    4.6943   -5.7427 N.am        1 KR2      -0.1666
     16 CAO        -3.5345    5.2486   -4.8087 C.2         1 KR2       0.2052
     17 OAP        -2.4826    4.6791   -4.5413 O.2         1 KR2      -0.3947
     18 CAN        -3.7387    6.5229   -4.1101 C.3         1 KR2       0.0838
     19 CAL        -3.4497    6.5480   -2.5740 C.3         1 KR2       0.0010
     20 NAM        -1.9927    6.6271   -2.3289 N.4         1 KR2       0.2238
     21 CAK        -4.2301    5.4632   -1.7485 C.3         1 KR2       0.0243
     22 CAG        -3.4621    4.8994   -0.6041 C.ar        1 KR2      -0.0094
     23 CAH        -2.5133    3.8812   -0.8599 C.ar        1 KR2      -0.0298
     24 CAC        -1.6804    3.3958    0.1619 C.ar        1 KR2       0.1544
     25 FAB        -0.8039    2.4707   -0.1184 F           1 KR2      -0.1895
     26 CAD        -1.7806    3.9297    1.4605 C.ar        1 KR2       0.1560
     27 FAI        -0.9742    3.5236    2.4042 F           1 KR2      -0.1911
     28 CAE        -2.7301    4.9321    1.7336 C.ar        1 KR2      -0.0030
     29 CAF        -3.5664    5.4199    0.7103 C.ar        1 KR2       0.1274
     30 FAJ        -4.4027    6.3822    0.9999 F           1 KR2      -0.1934
     31 H1         -4.1889    1.8765   -9.0838 H           1 KR2       0.0669
     32 H2         -3.3834   -0.2242   -9.9645 H           1 KR2       0.0629
     33 H3         -1.3594   -1.2295   -9.0777 H           1 KR2       0.0653
     34 H4         -0.1454   -0.1348   -7.2851 H           1 KR2       0.0629
     35 H5         -0.9408    1.9566   -6.3726 H           1 KR2       0.0669
     36 H6         -4.0906    1.6558   -5.2409 H           1 KR2       0.0545
     37 H7         -5.2563    1.7950   -6.5568 H           1 KR2       0.0545
     38 H8         -5.5266    3.0409   -3.7869 H           1 KR2       0.0285
     39 H9         -6.3554    1.6221   -4.3954 H           1 KR2       0.0285
     40 H10        -7.9601    3.3487   -4.5750 H           1 KR2       0.0267
     41 H11        -7.3990    3.0970   -6.2224 H           1 KR2       0.0267
     42 H12        -6.5994    5.3643   -4.3243 H           1 KR2       0.0285
     43 H13        -7.6501    5.4927   -5.7297 H           1 KR2       0.0285
     44 H14        -5.4422    6.3854   -6.3338 H           1 KR2       0.0546
     45 H15        -5.7809    4.9484   -7.2495 H           1 KR2       0.0546
     46 H16        -4.7593    6.8744   -4.2300 H           1 KR2       0.0561
     47 H17        -3.0976    7.2649   -4.5928 H           1 KR2       0.0561
     48 H18        -3.8013    7.5112   -2.2022 H           1 KR2       0.0898
     49 H19        -1.8177    6.7708   -1.3310 H           1 KR2       0.2000
     50 H20        -1.6076    7.4313   -2.8280 H           1 KR2       0.2000
     51 H21        -1.5149    5.7778   -2.6362 H           1 KR2       0.2000
     52 H22        -4.5312    4.6286   -2.3827 H           1 KR2       0.0467
     53 H23        -5.1689    5.9011   -1.3906 H           1 KR2       0.0467
     54 H24        -2.4102    3.5004   -1.8044 H           1 KR2       0.0522
     55 H25        -2.7914    5.3318    2.6726 H           1 KR2       0.0562
@<TRIPOS>BOND
     1     1     2  ar
     2     1     6  ar
     3     2     3  ar
     4     3     4  ar
     5     4     5  ar
     6     5     6  ar
     7     6     7   1
     8     7     8   2
     9     7     9  am
    10     9    10   1
    11     9    15   1
    12    10    11   1
    13    11    12   1
    14    12    13   1
    15    13    14   1
    16    14    15   1
    17    15    16  am
    18    16    17   2
    19    16    18   1
    20    18    19   1
    21    19    20   1
    22    19    21   1
    23    21    22   1
    24    22    23  ar
    25    22    29  ar
    26    23    24  ar
    27    24    25   1
    28    24    26  ar
    29    26    27   1
    30    26    28  ar
    31    28    29  ar
    32    29    30   1
    33     1    31   1
    34     2    32   1
    35     3    33   1
    36     4    34   1
    37     5    35   1
    38    10    36   1
    39    10    37   1
    40    11    38   1
    41    11    39   1
    42    12    40   1
    43    12    41   1
    44    13    42   1
    45    13    43   1
    46    14    44   1
    47    14    45   1
    48    18    46   1
    49    18    47   1
    50    19    48   1
    51    20    49   1
    52    20    50   1
    53    20    51   1
    54    21    52   1
    55    21    53   1
    56    23    54   1
    57    28    55   1
@<TRIPOS>SUBSTRUCTURE
     1  KR2      1

