@<TRIPOS>MOLECULE
2ole_ligand_040
    55    57
SMALL
GAST_HUCK
****
This file was generated by PARSER (from files_GN.cpp)

@<TRIPOS>ATOM
      1 CAY        -4.3430    4.4768  -10.8515 C.ar        1 KR2      -0.0419
      2 CBC        -4.9570    4.7136  -12.0944 C.ar        1 KR2      -0.0562
      3 CBB        -5.3821    6.0101  -12.4354 C.ar        1 KR2      -0.0575
      4 CBA        -5.1701    7.0775  -11.5422 C.ar        1 KR2      -0.0562
      5 CAZ        -4.5643    6.8422  -10.2937 C.ar        1 KR2      -0.0419
      6 CAX        -4.1646    5.5354   -9.9302 C.ar        1 KR2       0.0519
      7 CAW        -3.5941    5.2983   -8.6929 C.2         1 KR2       0.2286
      8 OAA        -2.3850    5.0988   -8.7149 O.2         1 KR2      -0.3825
      9 NAR        -4.2755    5.2117   -7.5346 N.am        1 KR2      -0.1656
     10 CAV        -5.7172    5.2640   -7.4190 C.3         1 KR2       0.0587
     11 CDD        -6.3684    3.8816   -7.6718 C.3         1 KR2      -0.0303
     12 CNN        -5.8397    2.7444   -6.7552 C.3         1 KR2      -0.0492
     13 CAT        -4.3100    2.4792   -6.8684 C.3         1 KR2      -0.0302
     14 CAS        -3.4171    3.5082   -6.1079 C.3         1 KR2       0.0592
     15 NAQ        -3.6160    4.9151   -6.4131 N.am        1 KR2      -0.1666
     16 CAO        -3.1559    5.9270   -5.6506 C.2         1 KR2       0.2052
     17 OAP        -3.4664    7.0761   -5.9514 O.2         1 KR2      -0.3947
     18 CAN        -2.2558    5.8308   -4.5023 C.3         1 KR2       0.0838
     19 CAL        -2.9159    6.1813   -3.1236 C.3         1 KR2       0.0010
     20 NAM        -1.8681    6.7119   -2.2340 N.4         1 KR2       0.2238
     21 CAK        -3.6099    4.9500   -2.4695 C.3         1 KR2       0.0243
     22 CAG        -4.3135    5.2561   -1.1900 C.ar        1 KR2      -0.0094
     23 CAH        -3.6598    5.0381    0.0471 C.ar        1 KR2      -0.0298
     24 CAC        -4.3185    5.2775    1.2676 C.ar        1 KR2       0.1544
     25 FAB        -3.6832    5.0759    2.3916 F           1 KR2      -0.1895
     26 CAD        -5.6545    5.7236    1.2677 C.ar        1 KR2       0.1560
     27 FAI        -6.2924    5.9201    2.3910 F           1 KR2      -0.1911
     28 CAE        -6.3100    5.9647    0.0464 C.ar        1 KR2      -0.0030
     29 CAF        -5.6447    5.7445   -1.1754 C.ar        1 KR2       0.1274
     30 FAJ        -6.2918    5.9870   -2.2854 F           1 KR2      -0.1934
     31 H1         -4.0484    3.5248  -10.6146 H           1 KR2       0.0669
     32 H2         -5.0973    3.9414  -12.7497 H           1 KR2       0.0629
     33 H3         -5.8374    6.1793  -13.3351 H           1 KR2       0.0653
     34 H4         -5.4555    8.0252  -11.8023 H           1 KR2       0.0629
     35 H5         -4.4150    7.6294   -9.6559 H           1 KR2       0.0669
     36 H6         -6.1346    5.9910   -8.1173 H           1 KR2       0.0545
     37 H7         -6.0061    5.6057   -6.4196 H           1 KR2       0.0545
     38 H8         -6.2140    3.5953   -8.7144 H           1 KR2       0.0285
     39 H9         -7.4463    3.9798   -7.5190 H           1 KR2       0.0285
     40 H10        -6.3634    1.8269   -7.0391 H           1 KR2       0.0267
     41 H11        -6.1016    2.9578   -5.7149 H           1 KR2       0.0267
     42 H12        -4.0222    2.4536   -7.9230 H           1 KR2       0.0285
     43 H13        -4.1014    1.4863   -6.4580 H           1 KR2       0.0285
     44 H14        -2.3705    3.2619   -6.3100 H           1 KR2       0.0546
     45 H15        -3.5930    3.3366   -5.0447 H           1 KR2       0.0546
     46 H16        -1.4281    6.5218   -4.6955 H           1 KR2       0.0561
     47 H17        -1.7902    4.8462   -4.4412 H           1 KR2       0.0561
     48 H18        -3.6553    6.9785   -3.2502 H           1 KR2       0.0898
     49 H19        -2.1874    6.8164   -1.2705 H           1 KR2       0.2000
     50 H20        -1.5618    7.6222   -2.5733 H           1 KR2       0.2000
     51 H21        -1.0731    6.0758   -2.2464 H           1 KR2       0.2000
     52 H22        -2.8621    4.1682   -2.3020 H           1 KR2       0.0467
     53 H23        -4.3360    4.5341   -3.1705 H           1 KR2       0.0467
     54 H24        -2.6918    4.7034    0.0642 H           1 KR2       0.0522
     55 H25        -7.2771    6.2970    0.0470 H           1 KR2       0.0562
@<TRIPOS>BOND
     1     1     2  ar
     2     1     6  ar
     3     2     3  ar
     4     3     4  ar
     5     4     5  ar
     6     5     6  ar
     7     6     7   1
     8     7     8   2
     9     7     9  am
    10     9    10   1
    11     9    15   1
    12    10    11   1
    13    11    12   1
    14    12    13   1
    15    13    14   1
    16    14    15   1
    17    15    16  am
    18    16    17   2
    19    16    18   1
    20    18    19   1
    21    19    20   1
    22    19    21   1
    23    21    22   1
    24    22    23  ar
    25    22    29  ar
    26    23    24  ar
    27    24    25   1
    28    24    26  ar
    29    26    27   1
    30    26    28  ar
    31    28    29  ar
    32    29    30   1
    33     1    31   1
    34     2    32   1
    35     3    33   1
    36     4    34   1
    37     5    35   1
    38    10    36   1
    39    10    37   1
    40    11    38   1
    41    11    39   1
    42    12    40   1
    43    12    41   1
    44    13    42   1
    45    13    43   1
    46    14    44   1
    47    14    45   1
    48    18    46   1
    49    18    47   1
    50    19    48   1
    51    20    49   1
    52    20    50   1
    53    20    51   1
    54    21    52   1
    55    21    53   1
    56    23    54   1
    57    28    55   1
@<TRIPOS>SUBSTRUCTURE
     1  KR2      1

