@<TRIPOS>MOLECULE
2ole_ligand_058
    55    57
SMALL
GAST_HUCK
****
This file was generated by PARSER (from files_GN.cpp)

@<TRIPOS>ATOM
      1 CAY        -4.8081    1.9239   -7.1437 C.ar        1 KR2      -0.0419
      2 CBC        -4.4165    0.7943   -6.4001 C.ar        1 KR2      -0.0562
      3 CBB        -3.0605    0.5872   -6.0983 C.ar        1 KR2      -0.0575
      4 CBA        -2.0972    1.4965   -6.5637 C.ar        1 KR2      -0.0562
      5 CAZ        -2.4935    2.6209   -7.3117 C.ar        1 KR2      -0.0419
      6 CAX        -3.8597    2.8807   -7.5933 C.ar        1 KR2       0.0519
      7 CAW        -4.2703    3.9822   -8.3603 C.2         1 KR2       0.2286
      8 OAA        -5.1370    3.7281   -9.1939 O.2         1 KR2      -0.3825
      9 NAR        -3.8060    5.2521   -8.2799 N.am        1 KR2      -0.1656
     10 CAV        -4.2919    6.2725   -9.2035 C.3         1 KR2       0.0587
     11 CDD        -3.7526    7.7251   -9.0901 C.3         1 KR2      -0.0303
     12 CNN        -2.2197    7.8684   -9.2854 C.3         1 KR2      -0.0492
     13 CAT        -1.3757    7.3825   -8.0800 C.3         1 KR2      -0.0302
     14 CAS        -1.5923    5.8832   -7.7517 C.3         1 KR2       0.0592
     15 NAQ        -2.9465    5.6164   -7.3199 N.am        1 KR2      -0.1666
     16 CAO        -3.3881    5.8869   -6.0777 C.2         1 KR2       0.2052
     17 OAP        -4.5985    6.0136   -5.9345 O.2         1 KR2      -0.3947
     18 CAN        -2.5269    6.0772   -4.8978 C.3         1 KR2       0.0838
     19 CAL        -3.1590    6.3159   -3.4830 C.3         1 KR2       0.0010
     20 NAM        -2.0646    6.6076   -2.5263 N.4         1 KR2       0.2238
     21 CAK        -3.9834    5.1280   -2.8872 C.3         1 KR2       0.0243
     22 CAG        -5.2255    4.7718   -3.6330 C.ar        1 KR2      -0.0094
     23 CAH        -6.2141    5.7621   -3.8530 C.ar        1 KR2      -0.0298
     24 CAC        -7.3620    5.4930   -4.6223 C.ar        1 KR2       0.1544
     25 FAB        -8.2426    6.4372   -4.8194 F           1 KR2      -0.1895
     26 CAD        -7.5576    4.2054   -5.1568 C.ar        1 KR2       0.1560
     27 FAI        -8.6296    3.9298   -5.8508 F           1 KR2      -0.1911
     28 CAE        -6.6091    3.1956   -4.9102 C.ar        1 KR2      -0.0030
     29 CAF        -5.4525    3.4717   -4.1548 C.ar        1 KR2       0.1274
     30 FAJ        -4.5842    2.5113   -3.9817 F           1 KR2      -0.1934
     31 H1         -5.8042    2.0508   -7.3424 H           1 KR2       0.0669
     32 H2         -5.1200    0.1304   -6.0683 H           1 KR2       0.0629
     33 H3         -2.7715   -0.2297   -5.5550 H           1 KR2       0.0653
     34 H4         -1.1055    1.3312   -6.3758 H           1 KR2       0.0629
     35 H5         -1.7608    3.2161   -7.6882 H           1 KR2       0.0669
     36 H6         -5.3808    6.3386   -9.0996 H           1 KR2       0.0545
     37 H7         -4.0794    5.9293  -10.2212 H           1 KR2       0.0545
     38 H8         -4.0482    8.1565   -8.1291 H           1 KR2       0.0285
     39 H9         -4.2385    8.3155   -9.8722 H           1 KR2       0.0285
     40 H10        -1.9905    8.9250   -9.4473 H           1 KR2       0.0267
     41 H11        -1.9140    7.3274  -10.1857 H           1 KR2       0.0267
     42 H12        -1.6102    8.0004   -7.2097 H           1 KR2       0.0285
     43 H13        -0.3197    7.5353   -8.3155 H           1 KR2       0.0285
     44 H14        -0.8692    5.5517   -7.0019 H           1 KR2       0.0546
     45 H15        -1.3750    5.3110   -8.6581 H           1 KR2       0.0546
     46 H16        -1.8933    6.9434   -5.0979 H           1 KR2       0.0561
     47 H17        -1.8675    5.2090   -4.8225 H           1 KR2       0.0561
     48 H18        -3.7755    7.2160   -3.5192 H           1 KR2       0.0898
     49 H19        -2.4132    6.6226   -1.5649 H           1 KR2       0.2000
     50 H20        -1.6464    7.5169   -2.7278 H           1 KR2       0.2000
     51 H21        -1.3455    5.8876   -2.6022 H           1 KR2       0.2000
     52 H22        -4.2908    5.3862   -1.8686 H           1 KR2       0.0467
     53 H23        -3.3132    4.2691   -2.7950 H           1 KR2       0.0467
     54 H24        -6.0842    6.7040   -3.4790 H           1 KR2       0.0522
     55 H25        -6.7651    2.2564   -5.2826 H           1 KR2       0.0562
@<TRIPOS>BOND
     1     1     2  ar
     2     1     6  ar
     3     2     3  ar
     4     3     4  ar
     5     4     5  ar
     6     5     6  ar
     7     6     7   1
     8     7     8   2
     9     7     9  am
    10     9    10   1
    11     9    15   1
    12    10    11   1
    13    11    12   1
    14    12    13   1
    15    13    14   1
    16    14    15   1
    17    15    16  am
    18    16    17   2
    19    16    18   1
    20    18    19   1
    21    19    20   1
    22    19    21   1
    23    21    22   1
    24    22    23  ar
    25    22    29  ar
    26    23    24  ar
    27    24    25   1
    28    24    26  ar
    29    26    27   1
    30    26    28  ar
    31    28    29  ar
    32    29    30   1
    33     1    31   1
    34     2    32   1
    35     3    33   1
    36     4    34   1
    37     5    35   1
    38    10    36   1
    39    10    37   1
    40    11    38   1
    41    11    39   1
    42    12    40   1
    43    12    41   1
    44    13    42   1
    45    13    43   1
    46    14    44   1
    47    14    45   1
    48    18    46   1
    49    18    47   1
    50    19    48   1
    51    20    49   1
    52    20    50   1
    53    20    51   1
    54    21    52   1
    55    21    53   1
    56    23    54   1
    57    28    55   1
@<TRIPOS>SUBSTRUCTURE
     1  KR2      1

