@<TRIPOS>MOLECULE
2ole_ligand_025
    55    57
SMALL
GAST_HUCK
****
This file was generated by PARSER (from files_GN.cpp)

@<TRIPOS>ATOM
      1 CAY        -8.3360    0.5489   -4.2587 C.ar        1 KR2      -0.0419
      2 CBC        -9.6912    0.2911   -4.5465 C.ar        1 KR2      -0.0562
      3 CBB       -10.4372    1.2160   -5.2958 C.ar        1 KR2      -0.0575
      4 CBA        -9.8354    2.4130   -5.7214 C.ar        1 KR2      -0.0562
      5 CAZ        -8.4806    2.6666   -5.4349 C.ar        1 KR2      -0.0419
      6 CAX        -7.6947    1.7182   -4.7317 C.ar        1 KR2       0.0519
      7 CAW        -6.3422    1.9623   -4.4400 C.2         1 KR2       0.2286
      8 OAA        -6.0229    1.7507   -3.2753 O.2         1 KR2      -0.3825
      9 NAR        -5.3899    2.3837   -5.2995 N.am        1 KR2      -0.1656
     10 CAV        -5.5886    2.3804   -6.7431 C.3         1 KR2       0.0587
     11 CDD        -4.3614    2.6227   -7.6721 C.3         1 KR2      -0.0303
     12 CNN        -3.2213    1.5804   -7.5177 C.3         1 KR2      -0.0492
     13 CAT        -2.3408    1.8162   -6.2646 C.3         1 KR2      -0.0302
     14 CAS        -3.1391    1.7379   -4.9387 C.3         1 KR2       0.0592
     15 NAQ        -4.1800    2.7441   -4.8379 N.am        1 KR2      -0.1666
     16 CAO        -4.0179    3.9562   -4.2640 C.2         1 KR2       0.2052
     17 OAP        -5.0253    4.5310   -3.8669 O.2         1 KR2      -0.3947
     18 CAN        -2.7566    4.5456   -3.8158 C.3         1 KR2       0.0838
     19 CAL        -2.4865    6.0961   -3.9699 C.3         1 KR2       0.0010
     20 NAM        -2.0270    6.6108   -2.6639 N.4         1 KR2       0.2238
     21 CAK        -3.5967    7.0703   -4.4917 C.3         1 KR2       0.0243
     22 CAG        -3.7822    7.0952   -5.9745 C.ar        1 KR2      -0.0094
     23 CAH        -4.7757    6.2937   -6.5884 C.ar        1 KR2      -0.0298
     24 CAC        -4.9875    6.3365   -7.9797 C.ar        1 KR2       0.1544
     25 FAB        -5.8937    5.5629   -8.5160 F           1 KR2      -0.1895
     26 CAD        -4.2346    7.2165   -8.7807 C.ar        1 KR2       0.1560
     27 FAI        -4.4449    7.2838  -10.0669 F           1 KR2      -0.1911
     28 CAE        -3.2687    8.0462   -8.1863 C.ar        1 KR2      -0.0030
     29 CAF        -3.0360    7.9794   -6.7990 C.ar        1 KR2       0.1274
     30 FAJ        -2.1294    8.7755   -6.2963 F           1 KR2      -0.1934
     31 H1         -7.8196   -0.1438   -3.7075 H           1 KR2       0.0669
     32 H2        -10.1367   -0.5664   -4.2134 H           1 KR2       0.0629
     33 H3        -11.4173    1.0304   -5.5140 H           1 KR2       0.0653
     34 H4        -10.3871    3.1061   -6.2315 H           1 KR2       0.0629
     35 H5         -8.0791    3.5637   -5.7155 H           1 KR2       0.0669
     36 H6         -6.3175    3.1534   -6.9917 H           1 KR2       0.0545
     37 H7         -6.0176    1.4186   -7.0365 H           1 KR2       0.0545
     38 H8         -3.9584    3.6263   -7.4966 H           1 KR2       0.0285
     39 H9         -4.7080    2.5921   -8.7094 H           1 KR2       0.0285
     40 H10        -2.5764    1.6387   -8.4001 H           1 KR2       0.0267
     41 H11        -3.6422    0.5698   -7.4900 H           1 KR2       0.0267
     42 H12        -1.8484    2.7853   -6.3498 H           1 KR2       0.0285
     43 H13        -1.5541    1.0539   -6.2472 H           1 KR2       0.0285
     44 H14        -2.4492    1.8050   -4.0969 H           1 KR2       0.0546
     45 H15        -3.5770    0.7352   -4.8672 H           1 KR2       0.0546
     46 H16        -1.9249    4.0496   -4.3170 H           1 KR2       0.0561
     47 H17        -2.6757    4.2586   -2.7642 H           1 KR2       0.0561
     48 H18        -1.6234    6.2184   -4.6327 H           1 KR2       0.0898
     49 H19        -1.6532    7.5541   -2.7727 H           1 KR2       0.2000
     50 H20        -1.2853    6.0055   -2.3080 H           1 KR2       0.2000
     51 H21        -2.8073    6.6261   -2.0005 H           1 KR2       0.2000
     52 H22        -3.3448    8.0882   -4.1882 H           1 KR2       0.0467
     53 H23        -4.5369    6.8663   -3.9826 H           1 KR2       0.0467
     54 H24        -5.3601    5.6727   -6.0228 H           1 KR2       0.0522
     55 H25        -2.7376    8.7049   -8.7639 H           1 KR2       0.0562
@<TRIPOS>BOND
     1     1     2  ar
     2     1     6  ar
     3     2     3  ar
     4     3     4  ar
     5     4     5  ar
     6     5     6  ar
     7     6     7   1
     8     7     8   2
     9     7     9  am
    10     9    10   1
    11     9    15   1
    12    10    11   1
    13    11    12   1
    14    12    13   1
    15    13    14   1
    16    14    15   1
    17    15    16  am
    18    16    17   2
    19    16    18   1
    20    18    19   1
    21    19    20   1
    22    19    21   1
    23    21    22   1
    24    22    23  ar
    25    22    29  ar
    26    23    24  ar
    27    24    25   1
    28    24    26  ar
    29    26    27   1
    30    26    28  ar
    31    28    29  ar
    32    29    30   1
    33     1    31   1
    34     2    32   1
    35     3    33   1
    36     4    34   1
    37     5    35   1
    38    10    36   1
    39    10    37   1
    40    11    38   1
    41    11    39   1
    42    12    40   1
    43    12    41   1
    44    13    42   1
    45    13    43   1
    46    14    44   1
    47    14    45   1
    48    18    46   1
    49    18    47   1
    50    19    48   1
    51    20    49   1
    52    20    50   1
    53    20    51   1
    54    21    52   1
    55    21    53   1
    56    23    54   1
    57    28    55   1
@<TRIPOS>SUBSTRUCTURE
     1  KR2      1

