@<TRIPOS>MOLECULE
2ole_ligand_007
    55    57
SMALL
GAST_HUCK
****
This file was generated by PARSER (from files_GN.cpp)

@<TRIPOS>ATOM
      1 CAY        -4.5706    7.1193   -6.3662 C.ar        1 KR2      -0.0419
      2 CBC        -3.9162    8.3488   -6.5730 C.ar        1 KR2      -0.0562
      3 CBB        -3.5436    8.7386   -7.8717 C.ar        1 KR2      -0.0575
      4 CBA        -3.8261    7.8953   -8.9620 C.ar        1 KR2      -0.0562
      5 CAZ        -4.4589    6.6546   -8.7526 C.ar        1 KR2      -0.0419
      6 CAX        -4.8245    6.2387   -7.4459 C.ar        1 KR2       0.0519
      7 CAW        -5.4120    4.9852   -7.2572 C.2         1 KR2       0.2286
      8 OAA        -6.4586    4.8078   -7.8705 O.2         1 KR2      -0.3825
      9 NAR        -4.8475    3.9639   -6.5764 N.am        1 KR2      -0.1656
     10 CAV        -5.4485    2.6385   -6.5697 C.3         1 KR2       0.0587
     11 CDD        -4.6297    1.4648   -5.9546 C.3         1 KR2      -0.0303
     12 CNN        -3.2606    1.2173   -6.6473 C.3         1 KR2      -0.0492
     13 CAT        -2.1540    2.2393   -6.2693 C.3         1 KR2      -0.0302
     14 CAS        -2.4996    3.7120   -6.6178 C.3         1 KR2       0.0592
     15 NAQ        -3.6969    4.1411   -5.9237 N.am        1 KR2      -0.1666
     16 CAO        -3.7212    4.5742   -4.6489 C.2         1 KR2       0.2052
     17 OAP        -4.8091    4.6263   -4.0807 O.2         1 KR2      -0.3947
     18 CAN        -2.5591    5.1281   -3.9505 C.3         1 KR2       0.0838
     19 CAL        -2.8221    5.7642   -2.5437 C.3         1 KR2       0.0010
     20 NAM        -1.7258    6.6943   -2.2165 N.4         1 KR2       0.2238
     21 CAK        -2.9977    4.6867   -1.4163 C.3         1 KR2       0.0243
     22 CAG        -3.9960    5.0466   -0.3658 C.ar        1 KR2      -0.0094
     23 CAH        -5.3300    5.3101   -0.7583 C.ar        1 KR2      -0.0298
     24 CAC        -6.3354    5.5797    0.1876 C.ar        1 KR2       0.1544
     25 FAB        -7.5531    5.8111   -0.2255 F           1 KR2      -0.1895
     26 CAD        -6.0174    5.6090    1.5598 C.ar        1 KR2       0.1560
     27 FAI        -6.9378    5.8644    2.4522 F           1 KR2      -0.1911
     28 CAE        -4.6965    5.3558    1.9711 C.ar        1 KR2      -0.0030
     29 CAF        -3.6915    5.0684    1.0214 C.ar        1 KR2       0.1274
     30 FAJ        -2.4888    4.8065    1.4640 F           1 KR2      -0.1934
     31 H1         -4.8780    6.8874   -5.4188 H           1 KR2       0.0669
     32 H2         -3.7260    8.9639   -5.7760 H           1 KR2       0.0629
     33 H3         -3.0802    9.6389   -8.0230 H           1 KR2       0.0653
     34 H4         -3.5680    8.1849   -9.9082 H           1 KR2       0.0629
     35 H5         -4.6421    6.0537   -9.5624 H           1 KR2       0.0669
     36 H6         -5.6747    2.3524   -7.6016 H           1 KR2       0.0545
     37 H7         -6.3967    2.7018   -6.0276 H           1 KR2       0.0545
     38 H8         -5.2287    0.5550   -6.0525 H           1 KR2       0.0285
     39 H9         -4.4779    1.6359   -4.8846 H           1 KR2       0.0285
     40 H10        -3.3949    1.2104   -7.7322 H           1 KR2       0.0267
     41 H11        -2.9061    0.2229   -6.3592 H           1 KR2       0.0267
     42 H12        -1.2368    1.9643   -6.7996 H           1 KR2       0.0285
     43 H13        -1.9461    2.1575   -5.1986 H           1 KR2       0.0285
     44 H14        -2.6413    3.7838   -7.7009 H           1 KR2       0.0546
     45 H15        -1.6471    4.3515   -6.3804 H           1 KR2       0.0546
     46 H16        -2.1479    5.9114   -4.5967 H           1 KR2       0.0561
     47 H17        -1.7999    4.3523   -3.8441 H           1 KR2       0.0561
     48 H18        -3.7155    6.3879   -2.6131 H           1 KR2       0.0898
     49 H19        -1.8424    7.0623   -1.2728 H           1 KR2       0.2000
     50 H20        -1.7119    7.4660   -2.8830 H           1 KR2       0.2000
     51 H21        -0.8331    6.2033   -2.2765 H           1 KR2       0.2000
     52 H22        -2.0190    4.4669   -0.9804 H           1 KR2       0.0467
     53 H23        -3.3420    3.7459   -1.8533 H           1 KR2       0.0467
     54 H24        -5.5886    5.2812   -1.7504 H           1 KR2       0.0522
     55 H25        -4.4688    5.3701    2.9704 H           1 KR2       0.0562
@<TRIPOS>BOND
     1     1     2  ar
     2     1     6  ar
     3     2     3  ar
     4     3     4  ar
     5     4     5  ar
     6     5     6  ar
     7     6     7   1
     8     7     8   2
     9     7     9  am
    10     9    10   1
    11     9    15   1
    12    10    11   1
    13    11    12   1
    14    12    13   1
    15    13    14   1
    16    14    15   1
    17    15    16  am
    18    16    17   2
    19    16    18   1
    20    18    19   1
    21    19    20   1
    22    19    21   1
    23    21    22   1
    24    22    23  ar
    25    22    29  ar
    26    23    24  ar
    27    24    25   1
    28    24    26  ar
    29    26    27   1
    30    26    28  ar
    31    28    29  ar
    32    29    30   1
    33     1    31   1
    34     2    32   1
    35     3    33   1
    36     4    34   1
    37     5    35   1
    38    10    36   1
    39    10    37   1
    40    11    38   1
    41    11    39   1
    42    12    40   1
    43    12    41   1
    44    13    42   1
    45    13    43   1
    46    14    44   1
    47    14    45   1
    48    18    46   1
    49    18    47   1
    50    19    48   1
    51    20    49   1
    52    20    50   1
    53    20    51   1
    54    21    52   1
    55    21    53   1
    56    23    54   1
    57    28    55   1
@<TRIPOS>SUBSTRUCTURE
     1  KR2      1

