@<TRIPOS>MOLECULE
2ole_ligand_044
    55    57
SMALL
GAST_HUCK
****
This file was generated by PARSER (from files_GN.cpp)

@<TRIPOS>ATOM
      1 CAY        -6.9054    0.5511   -3.9926 C.ar        1 KR2      -0.0419
      2 CBC        -7.9621   -0.3656   -3.8875 C.ar        1 KR2      -0.0562
      3 CBB        -8.0329   -1.4579   -4.7709 C.ar        1 KR2      -0.0575
      4 CBA        -7.0369   -1.6374   -5.7498 C.ar        1 KR2      -0.0562
      5 CAZ        -5.9797   -0.7161   -5.8570 C.ar        1 KR2      -0.0419
      6 CAX        -5.9139    0.4017   -4.9955 C.ar        1 KR2       0.0519
      7 CAW        -4.9124    1.3499   -5.1343 C.2         1 KR2       0.2286
      8 OAA        -3.7901    0.9733   -4.8002 O.2         1 KR2      -0.3825
      9 NAR        -5.1119    2.6196   -5.5321 N.am        1 KR2      -0.1656
     10 CAV        -6.4001    3.0811   -6.0299 C.3         1 KR2       0.0587
     11 CDD        -6.5146    4.5488   -6.5227 C.3         1 KR2      -0.0303
     12 CNN        -5.5863    4.8753   -7.7217 C.3         1 KR2      -0.0492
     13 CAT        -4.0936    5.0735   -7.3492 C.3         1 KR2      -0.0302
     14 CAS        -3.4312    3.8653   -6.6329 C.3         1 KR2       0.0592
     15 NAQ        -4.1193    3.5091   -5.4155 N.am        1 KR2      -0.1666
     16 CAO        -3.9214    4.1014   -4.2180 C.2         1 KR2       0.2052
     17 OAP        -4.7120    3.8097   -3.3336 O.2         1 KR2      -0.3947
     18 CAN        -2.8366    5.0421   -3.8886 C.3         1 KR2       0.0838
     19 CAL        -2.8786    5.7591   -2.4976 C.3         1 KR2       0.0010
     20 NAM        -1.7666    6.7172   -2.3959 N.4         1 KR2       0.2238
     21 CAK        -2.8676    4.8002   -1.2457 C.3         1 KR2       0.0243
     22 CAG        -3.8908    5.0829   -0.1885 C.ar        1 KR2      -0.0094
     23 CAH        -5.2509    5.2997   -0.5329 C.ar        1 KR2      -0.0298
     24 CAC        -6.2351    5.5229    0.4385 C.ar        1 KR2       0.1544
     25 FAB        -7.4657    5.7509    0.0583 F           1 KR2      -0.1895
     26 CAD        -5.8923    5.4943    1.8022 C.ar        1 KR2       0.1560
     27 FAI        -6.8010    5.6897    2.7200 F           1 KR2      -0.1911
     28 CAE        -4.5579    5.2393    2.1751 C.ar        1 KR2      -0.0030
     29 CAF        -3.5690    5.0360    1.1948 C.ar        1 KR2       0.1274
     30 FAJ        -2.3544    4.7698    1.6070 F           1 KR2      -0.1934
     31 H1         -6.8708    1.3414   -3.3419 H           1 KR2       0.0669
     32 H2         -8.6841   -0.2340   -3.1728 H           1 KR2       0.0629
     33 H3         -8.8035   -2.1247   -4.6977 H           1 KR2       0.0653
     34 H4         -7.0880   -2.4333   -6.3893 H           1 KR2       0.0629
     35 H5         -5.2723   -0.8506   -6.5879 H           1 KR2       0.0669
     36 H6         -7.1423    2.9813   -5.2360 H           1 KR2       0.0545
     37 H7         -6.7029    2.4265   -6.8509 H           1 KR2       0.0545
     38 H8         -6.3136    5.2346   -5.6949 H           1 KR2       0.0285
     39 H9         -7.5517    4.7127   -6.8337 H           1 KR2       0.0285
     40 H10        -5.9407    5.8054   -8.1772 H           1 KR2       0.0267
     41 H11        -5.6739    4.0889   -8.4766 H           1 KR2       0.0267
     42 H12        -4.0058    5.9649   -6.7228 H           1 KR2       0.0285
     43 H13        -3.5378    5.2708   -8.2692 H           1 KR2       0.0285
     44 H14        -2.3807    4.0934   -6.4384 H           1 KR2       0.0546
     45 H15        -3.4306    3.0153   -7.3226 H           1 KR2       0.0546
     46 H16        -2.8277    5.8298   -4.6452 H           1 KR2       0.0561
     47 H17        -1.8876    4.5028   -3.9651 H           1 KR2       0.0561
     48 H18        -3.7693    6.3938   -2.5082 H           1 KR2       0.0898
     49 H19        -1.7310    7.1184   -1.4565 H           1 KR2       0.2000
     50 H20        -1.8798    7.4657   -3.0811 H           1 KR2       0.2000
     51 H21        -0.8911    6.2264   -2.5790 H           1 KR2       0.2000
     52 H22        -1.8577    4.7886   -0.8267 H           1 KR2       0.0467
     53 H23        -3.0238    3.7637   -1.5389 H           1 KR2       0.0467
     54 H24        -5.5465    5.3136   -1.5134 H           1 KR2       0.0522
     55 H25        -4.3132    5.1982    3.1681 H           1 KR2       0.0562
@<TRIPOS>BOND
     1     1     2  ar
     2     1     6  ar
     3     2     3  ar
     4     3     4  ar
     5     4     5  ar
     6     5     6  ar
     7     6     7   1
     8     7     8   2
     9     7     9  am
    10     9    10   1
    11     9    15   1
    12    10    11   1
    13    11    12   1
    14    12    13   1
    15    13    14   1
    16    14    15   1
    17    15    16  am
    18    16    17   2
    19    16    18   1
    20    18    19   1
    21    19    20   1
    22    19    21   1
    23    21    22   1
    24    22    23  ar
    25    22    29  ar
    26    23    24  ar
    27    24    25   1
    28    24    26  ar
    29    26    27   1
    30    26    28  ar
    31    28    29  ar
    32    29    30   1
    33     1    31   1
    34     2    32   1
    35     3    33   1
    36     4    34   1
    37     5    35   1
    38    10    36   1
    39    10    37   1
    40    11    38   1
    41    11    39   1
    42    12    40   1
    43    12    41   1
    44    13    42   1
    45    13    43   1
    46    14    44   1
    47    14    45   1
    48    18    46   1
    49    18    47   1
    50    19    48   1
    51    20    49   1
    52    20    50   1
    53    20    51   1
    54    21    52   1
    55    21    53   1
    56    23    54   1
    57    28    55   1
@<TRIPOS>SUBSTRUCTURE
     1  KR2      1

