@<TRIPOS>MOLECULE
2ole_ligand_068
    55    57
SMALL
GAST_HUCK
****
This file was generated by PARSER (from files_GN.cpp)

@<TRIPOS>ATOM
      1 CAY        -1.2767    3.1651   -9.9570 C.ar        1 KR2      -0.0419
      2 CBC        -0.1618    2.3840   -9.6030 C.ar        1 KR2      -0.0562
      3 CBB        -0.1620    1.6550   -8.3990 C.ar        1 KR2      -0.0575
      4 CBA        -1.2969    1.6767   -7.5665 C.ar        1 KR2      -0.0562
      5 CAZ        -2.4189    2.4404   -7.9287 C.ar        1 KR2      -0.0419
      6 CAX        -2.4093    3.2194   -9.1102 C.ar        1 KR2       0.0519
      7 CAW        -3.4866    4.0261   -9.4456 C.2         1 KR2       0.2286
      8 OAA        -4.1227    3.6521  -10.4212 O.2         1 KR2      -0.3825
      9 NAR        -3.7955    5.1771   -8.8139 N.am        1 KR2      -0.1656
     10 CAV        -4.8957    6.0200   -9.2370 C.3         1 KR2       0.0587
     11 CDD        -4.4675    6.9493  -10.4006 C.3         1 KR2      -0.0303
     12 CNN        -3.3452    7.9469  -10.0107 C.3         1 KR2      -0.0492
     13 CAT        -2.0287    7.2701   -9.5341 C.3         1 KR2      -0.0302
     14 CAS        -2.0849    6.6876   -8.0882 C.3         1 KR2       0.0592
     15 NAQ        -3.0506    5.6397   -7.8013 N.am        1 KR2      -0.1666
     16 CAO        -3.2635    5.1472   -6.5583 C.2         1 KR2       0.2052
     17 OAP        -4.1624    4.3298   -6.4207 O.2         1 KR2      -0.3947
     18 CAN        -2.4818    5.3916   -5.3419 C.3         1 KR2       0.0838
     19 CAL        -3.2807    5.9013   -4.0905 C.3         1 KR2       0.0010
     20 NAM        -2.2953    6.4098   -3.1132 N.4         1 KR2       0.2238
     21 CAK        -4.1636    4.8428   -3.3428 C.3         1 KR2       0.0243
     22 CAG        -5.4507    4.4654   -4.0013 C.ar        1 KR2      -0.0094
     23 CAH        -5.7733    3.1003   -4.2075 C.ar        1 KR2      -0.0298
     24 CAC        -6.9571    2.7300   -4.8822 C.ar        1 KR2       0.1544
     25 FAB        -7.2136    1.4654   -5.0841 F           1 KR2      -0.1895
     26 CAD        -7.8448    3.7221   -5.3322 C.ar        1 KR2       0.1560
     27 FAI        -8.9315    3.4010   -5.9824 F           1 KR2      -0.1911
     28 CAE        -7.5706    5.0768   -5.0804 C.ar        1 KR2      -0.0030
     29 CAF        -6.3847    5.4497   -4.4101 C.ar        1 KR2       0.1274
     30 FAJ        -6.1715    6.7187   -4.1816 F           1 KR2      -0.1934
     31 H1         -1.2563    3.6916  -10.8348 H           1 KR2       0.0669
     32 H2          0.6545    2.3500  -10.2189 H           1 KR2       0.0629
     33 H3          0.6530    1.0992   -8.1318 H           1 KR2       0.0653
     34 H4         -1.3033    1.1338   -6.6991 H           1 KR2       0.0629
     35 H5         -3.2444    2.4167   -7.3250 H           1 KR2       0.0669
     36 H6         -5.2499    6.6384   -8.4060 H           1 KR2       0.0545
     37 H7         -5.7493    5.4137   -9.5462 H           1 KR2       0.0545
     38 H8         -5.3385    7.5154  -10.7318 H           1 KR2       0.0285
     39 H9         -4.1349    6.3432  -11.2475 H           1 KR2       0.0285
     40 H10        -3.7104    8.6243   -9.2354 H           1 KR2       0.0267
     41 H11        -3.1225    8.5527  -10.8930 H           1 KR2       0.0267
     42 H12        -1.2356    8.0210   -9.5660 H           1 KR2       0.0285
     43 H13        -1.7557    6.4833  -10.2407 H           1 KR2       0.0285
     44 H14        -2.2696    7.5308   -7.4151 H           1 KR2       0.0546
     45 H15        -1.0867    6.2982   -7.8676 H           1 KR2       0.0546
     46 H16        -1.6883    6.1117   -5.5495 H           1 KR2       0.0561
     47 H17        -1.9697    4.4616   -5.0718 H           1 KR2       0.0561
     48 H18        -3.9060    6.7536   -4.3805 H           1 KR2       0.0898
     49 H19        -2.7781    6.7258   -2.2655 H           1 KR2       0.2000
     50 H20        -1.7877    7.1979   -3.5189 H           1 KR2       0.2000
     51 H21        -1.6295    5.6734   -2.8649 H           1 KR2       0.2000
     52 H22        -4.4331    5.2322   -2.3564 H           1 KR2       0.0467
     53 H23        -3.5480    3.9575   -3.1615 H           1 KR2       0.0467
     54 H24        -5.1343    2.3648   -3.8984 H           1 KR2       0.0522
     55 H25        -8.2355    5.7960   -5.3779 H           1 KR2       0.0562
@<TRIPOS>BOND
     1     1     2  ar
     2     1     6  ar
     3     2     3  ar
     4     3     4  ar
     5     4     5  ar
     6     5     6  ar
     7     6     7   1
     8     7     8   2
     9     7     9  am
    10     9    10   1
    11     9    15   1
    12    10    11   1
    13    11    12   1
    14    12    13   1
    15    13    14   1
    16    14    15   1
    17    15    16  am
    18    16    17   2
    19    16    18   1
    20    18    19   1
    21    19    20   1
    22    19    21   1
    23    21    22   1
    24    22    23  ar
    25    22    29  ar
    26    23    24  ar
    27    24    25   1
    28    24    26  ar
    29    26    27   1
    30    26    28  ar
    31    28    29  ar
    32    29    30   1
    33     1    31   1
    34     2    32   1
    35     3    33   1
    36     4    34   1
    37     5    35   1
    38    10    36   1
    39    10    37   1
    40    11    38   1
    41    11    39   1
    42    12    40   1
    43    12    41   1
    44    13    42   1
    45    13    43   1
    46    14    44   1
    47    14    45   1
    48    18    46   1
    49    18    47   1
    50    19    48   1
    51    20    49   1
    52    20    50   1
    53    20    51   1
    54    21    52   1
    55    21    53   1
    56    23    54   1
    57    28    55   1
@<TRIPOS>SUBSTRUCTURE
     1  KR2      1

