@<TRIPOS>MOLECULE
2ole_ligand_038
    55    57
SMALL
GAST_HUCK
****
This file was generated by PARSER (from files_GN.cpp)

@<TRIPOS>ATOM
      1 CAY        -7.7083    3.1169   -7.6359 C.ar        1 KR2      -0.0419
      2 CBC        -8.7465    2.3971   -8.2570 C.ar        1 KR2      -0.0562
      3 CBB        -8.4517    1.2490   -9.0154 C.ar        1 KR2      -0.0575
      4 CBA        -7.1191    0.8271   -9.1673 C.ar        1 KR2      -0.0562
      5 CAZ        -6.0784    1.5463   -8.5501 C.ar        1 KR2      -0.0419
      6 CAX        -6.3690    2.6881   -7.7702 C.ar        1 KR2       0.0519
      7 CAW        -5.3544    3.3881   -7.1557 C.2         1 KR2       0.2286
      8 OAA        -4.8413    4.2512   -7.8603 O.2         1 KR2      -0.3825
      9 NAR        -4.9181    3.1829   -5.8995 N.am        1 KR2      -0.1656
     10 CAV        -5.4148    2.1451   -5.0132 C.3         1 KR2       0.0587
     11 CDD        -4.6985    0.7852   -5.2229 C.3         1 KR2      -0.0303
     12 CNN        -3.1513    0.8234   -5.0854 C.3         1 KR2      -0.0492
     13 CAT        -2.4377    1.8477   -6.0101 C.3         1 KR2      -0.0302
     14 CAS        -2.5679    3.3163   -5.5125 C.3         1 KR2       0.0592
     15 NAQ        -3.8956    3.9060   -5.4421 N.am        1 KR2      -0.1666
     16 CAO        -4.1348    5.1344   -4.9271 C.2         1 KR2       0.2052
     17 OAP        -5.2909    5.5521   -4.8989 O.2         1 KR2      -0.3947
     18 CAN        -3.1405    6.0357   -4.3466 C.3         1 KR2       0.0838
     19 CAL        -3.2959    6.3140   -2.8136 C.3         1 KR2       0.0010
     20 NAM        -1.9781    6.7170   -2.2852 N.4         1 KR2       0.2238
     21 CAK        -3.8558    5.1303   -1.9580 C.3         1 KR2       0.0243
     22 CAG        -3.7723    5.3615   -0.4847 C.ar        1 KR2      -0.0094
     23 CAH        -4.4573    6.4557    0.1024 C.ar        1 KR2      -0.0298
     24 CAC        -4.3799    6.7089    1.4855 C.ar        1 KR2       0.1544
     25 FAB        -5.0043    7.7437    1.9870 F           1 KR2      -0.1895
     26 CAD        -3.6169    5.8604    2.3101 C.ar        1 KR2       0.1560
     27 FAI        -3.5532    6.0736    3.5950 F           1 KR2      -0.1911
     28 CAE        -2.9060    4.7876    1.7417 C.ar        1 KR2      -0.0030
     29 CAF        -2.9748    4.5420    0.3579 C.ar        1 KR2       0.1274
     30 FAJ        -2.2693    3.5448   -0.1111 F           1 KR2      -0.1934
     31 H1         -7.9360    3.9521   -7.0864 H           1 KR2       0.0669
     32 H2         -9.7160    2.7070   -8.1504 H           1 KR2       0.0629
     33 H3         -9.2063    0.7261   -9.4618 H           1 KR2       0.0653
     34 H4         -6.9058   -0.0099   -9.7153 H           1 KR2       0.0629
     35 H5         -5.1124    1.2256   -8.6665 H           1 KR2       0.0669
     36 H6         -6.4903    2.0012   -5.1482 H           1 KR2       0.0545
     37 H7         -5.2814    2.4489   -3.9704 H           1 KR2       0.0545
     38 H8         -4.9491    0.3944   -6.2109 H           1 KR2       0.0285
     39 H9         -5.0831    0.0738   -4.4882 H           1 KR2       0.0285
     40 H10        -2.7690   -0.1734   -5.3288 H           1 KR2       0.0267
     41 H11        -2.8819    1.0289   -4.0451 H           1 KR2       0.0267
     42 H12        -2.8208    1.7614   -7.0311 H           1 KR2       0.0285
     43 H13        -1.3704    1.5987   -6.0449 H           1 KR2       0.0285
     44 H14        -1.9593    3.9364   -6.1764 H           1 KR2       0.0546
     45 H15        -2.1162    3.3445   -4.5171 H           1 KR2       0.0546
     46 H16        -3.2122    6.9939   -4.8751 H           1 KR2       0.0561
     47 H17        -2.1293    5.6722   -4.5357 H           1 KR2       0.0561
     48 H18        -3.9783    7.1621   -2.6963 H           1 KR2       0.0898
     49 H19        -2.0345    6.8929   -1.2807 H           1 KR2       0.2000
     50 H20        -1.6541    7.5651   -2.7480 H           1 KR2       0.2000
     51 H21        -1.3116    5.9618   -2.4542 H           1 KR2       0.2000
     52 H22        -3.3196    4.2231   -2.2472 H           1 KR2       0.0467
     53 H23        -4.9119    4.9684   -2.2021 H           1 KR2       0.0467
     54 H24        -5.0126    7.0822   -0.4830 H           1 KR2       0.0522
     55 H25        -2.3265    4.1823    2.3307 H           1 KR2       0.0562
@<TRIPOS>BOND
     1     1     2  ar
     2     1     6  ar
     3     2     3  ar
     4     3     4  ar
     5     4     5  ar
     6     5     6  ar
     7     6     7   1
     8     7     8   2
     9     7     9  am
    10     9    10   1
    11     9    15   1
    12    10    11   1
    13    11    12   1
    14    12    13   1
    15    13    14   1
    16    14    15   1
    17    15    16  am
    18    16    17   2
    19    16    18   1
    20    18    19   1
    21    19    20   1
    22    19    21   1
    23    21    22   1
    24    22    23  ar
    25    22    29  ar
    26    23    24  ar
    27    24    25   1
    28    24    26  ar
    29    26    27   1
    30    26    28  ar
    31    28    29  ar
    32    29    30   1
    33     1    31   1
    34     2    32   1
    35     3    33   1
    36     4    34   1
    37     5    35   1
    38    10    36   1
    39    10    37   1
    40    11    38   1
    41    11    39   1
    42    12    40   1
    43    12    41   1
    44    13    42   1
    45    13    43   1
    46    14    44   1
    47    14    45   1
    48    18    46   1
    49    18    47   1
    50    19    48   1
    51    20    49   1
    52    20    50   1
    53    20    51   1
    54    21    52   1
    55    21    53   1
    56    23    54   1
    57    28    55   1
@<TRIPOS>SUBSTRUCTURE
     1  KR2      1

