@<TRIPOS>MOLECULE
2ole_ligand_041
    55    57
SMALL
GAST_HUCK
****
This file was generated by PARSER (from files_GN.cpp)

@<TRIPOS>ATOM
      1 CAY        -8.5692    4.3882   -6.0631 C.ar        1 KR2      -0.0419
      2 CBC        -9.7951    4.4023   -6.7508 C.ar        1 KR2      -0.0562
      3 CBB       -10.0861    3.3949   -7.6887 C.ar        1 KR2      -0.0575
      4 CBA        -9.1569    2.3625   -7.9202 C.ar        1 KR2      -0.0562
      5 CAZ        -7.9323    2.3438   -7.2211 C.ar        1 KR2      -0.0419
      6 CAX        -7.6144    3.3686   -6.2976 C.ar        1 KR2       0.0519
      7 CAW        -6.4280    3.3785   -5.5781 C.2         1 KR2       0.2286
      8 OAA        -6.5839    3.4228   -4.3580 O.2         1 KR2      -0.3825
      9 NAR        -5.1817    3.4359   -6.0850 N.am        1 KR2      -0.1656
     10 CAV        -4.9408    3.5421   -7.5167 C.3         1 KR2       0.0587
     11 CDD        -3.4734    3.7033   -8.0084 C.3         1 KR2      -0.0303
     12 CNN        -2.5603    2.4897   -7.6764 C.3         1 KR2      -0.0492
     13 CAT        -2.1279    2.3758   -6.1903 C.3         1 KR2      -0.0302
     14 CAS        -3.3143    2.3042   -5.1947 C.3         1 KR2       0.0592
     15 NAQ        -4.1262    3.5027   -5.2552 N.am        1 KR2      -0.1666
     16 CAO        -3.7942    4.6831   -4.6845 C.2         1 KR2       0.2052
     17 OAP        -4.4814    5.6614   -4.9658 O.2         1 KR2      -0.3947
     18 CAN        -2.6105    4.9894   -3.8686 C.3         1 KR2       0.0838
     19 CAL        -2.8878    5.7463   -2.5199 C.3         1 KR2       0.0010
     20 NAM        -1.8051    6.7279   -2.3023 N.4         1 KR2       0.2238
     21 CAK        -3.0404    4.8942   -1.2091 C.3         1 KR2       0.0243
     22 CAG        -3.4603    3.4612   -1.3246 C.ar        1 KR2      -0.0094
     23 CAH        -4.6538    3.1206   -2.0063 C.ar        1 KR2      -0.0298
     24 CAC        -5.0727    1.7764   -2.1196 C.ar        1 KR2       0.1544
     25 FAB        -6.1634    1.4730   -2.7731 F           1 KR2      -0.1895
     26 CAD        -4.3115    0.7542   -1.5267 C.ar        1 KR2       0.1560
     27 FAI        -4.6829   -0.4961   -1.6199 F           1 KR2      -0.1911
     28 CAE        -3.1512    1.0751   -0.8052 C.ar        1 KR2      -0.0030
     29 CAF        -2.7249    2.4137   -0.7051 C.ar        1 KR2       0.1274
     30 FAJ        -1.6293    2.6508   -0.0273 F           1 KR2      -0.1934
     31 H1         -8.3832    5.1280   -5.3791 H           1 KR2       0.0669
     32 H2        -10.4729    5.1467   -6.5666 H           1 KR2       0.0629
     33 H3        -10.9732    3.4081   -8.1945 H           1 KR2       0.0653
     34 H4         -9.3762    1.6208   -8.5910 H           1 KR2       0.0629
     35 H5         -7.2950    1.5547   -7.3718 H           1 KR2       0.0669
     36 H6         -5.4926    4.4105   -7.8902 H           1 KR2       0.0545
     37 H7         -5.3391    2.6555   -8.0162 H           1 KR2       0.0545
     38 H8         -3.0410    4.6170   -7.5967 H           1 KR2       0.0285
     39 H9         -3.4986    3.8183   -9.0962 H           1 KR2       0.0285
     40 H10        -1.6511    2.5736   -8.2822 H           1 KR2       0.0267
     41 H11        -3.0610    1.5641   -7.9793 H           1 KR2       0.0267
     42 H12        -1.4873    3.2243   -5.9407 H           1 KR2       0.0285
     43 H13        -1.5249    1.4713   -6.0749 H           1 KR2       0.0285
     44 H14        -2.9441    2.1254   -4.1849 H           1 KR2       0.0546
     45 H15        -3.9137    1.4236   -5.4442 H           1 KR2       0.0546
     46 H16        -1.9788    5.6132   -4.5054 H           1 KR2       0.0561
     47 H17        -2.0182    4.1067   -3.6457 H           1 KR2       0.0561
     48 H18        -3.7927    6.3518   -2.6256 H           1 KR2       0.0898
     49 H19        -1.8606    7.1155   -1.3568 H           1 KR2       0.2000
     50 H20        -1.8613    7.4830   -2.9902 H           1 KR2       0.2000
     51 H21        -0.9058    6.2550   -2.4068 H           1 KR2       0.2000
     52 H22        -3.7704    5.3969   -0.5694 H           1 KR2       0.0467
     53 H23        -2.0956    4.9472   -0.6626 H           1 KR2       0.0467
     54 H24        -5.2170    3.8582   -2.4252 H           1 KR2       0.0522
     55 H25        -2.6205    0.3342   -0.3486 H           1 KR2       0.0562
@<TRIPOS>BOND
     1     1     2  ar
     2     1     6  ar
     3     2     3  ar
     4     3     4  ar
     5     4     5  ar
     6     5     6  ar
     7     6     7   1
     8     7     8   2
     9     7     9  am
    10     9    10   1
    11     9    15   1
    12    10    11   1
    13    11    12   1
    14    12    13   1
    15    13    14   1
    16    14    15   1
    17    15    16  am
    18    16    17   2
    19    16    18   1
    20    18    19   1
    21    19    20   1
    22    19    21   1
    23    21    22   1
    24    22    23  ar
    25    22    29  ar
    26    23    24  ar
    27    24    25   1
    28    24    26  ar
    29    26    27   1
    30    26    28  ar
    31    28    29  ar
    32    29    30   1
    33     1    31   1
    34     2    32   1
    35     3    33   1
    36     4    34   1
    37     5    35   1
    38    10    36   1
    39    10    37   1
    40    11    38   1
    41    11    39   1
    42    12    40   1
    43    12    41   1
    44    13    42   1
    45    13    43   1
    46    14    44   1
    47    14    45   1
    48    18    46   1
    49    18    47   1
    50    19    48   1
    51    20    49   1
    52    20    50   1
    53    20    51   1
    54    21    52   1
    55    21    53   1
    56    23    54   1
    57    28    55   1
@<TRIPOS>SUBSTRUCTURE
     1  KR2      1

