@<TRIPOS>MOLECULE
2ole_ligand_075
    55    57
SMALL
GAST_HUCK
****
This file was generated by PARSER (from files_GN.cpp)

@<TRIPOS>ATOM
      1 CAY        -2.2488    2.3561   -9.7145 C.ar        1 KR2      -0.0419
      2 CBC        -2.7732    1.3709  -10.5721 C.ar        1 KR2      -0.0562
      3 CBB        -3.8601    0.5802  -10.1575 C.ar        1 KR2      -0.0575
      4 CBA        -4.4228    0.7720   -8.8848 C.ar        1 KR2      -0.0562
      5 CAZ        -3.9076    1.7624   -8.0288 C.ar        1 KR2      -0.0419
      6 CAX        -2.8207    2.5725   -8.4390 C.ar        1 KR2       0.0519
      7 CAW        -2.3494    3.5867   -7.6127 C.2         1 KR2       0.2286
      8 OAA        -1.2041    3.4357   -7.2010 O.2         1 KR2      -0.3825
      9 NAR        -3.0638    4.6720   -7.2451 N.am        1 KR2      -0.1656
     10 CAV        -4.3316    4.9969   -7.8879 C.3         1 KR2       0.0587
     11 CDD        -4.8309    6.4580   -7.7576 C.3         1 KR2      -0.0303
     12 CNN        -3.8648    7.5095   -8.3752 C.3         1 KR2      -0.0492
     13 CAT        -2.3531    7.2748   -8.0990 C.3         1 KR2      -0.0302
     14 CAS        -2.0736    6.7938   -6.6508 C.3         1 KR2       0.0592
     15 NAQ        -2.5950    5.4849   -6.2785 N.am        1 KR2      -0.1666
     16 CAO        -2.6253    5.0634   -4.9946 C.2         1 KR2       0.2052
     17 OAP        -3.0901    3.9549   -4.7485 O.2         1 KR2      -0.3947
     18 CAN        -2.1532    5.8038   -3.8209 C.3         1 KR2       0.0838
     19 CAL        -3.2922    6.4065   -2.9375 C.3         1 KR2       0.0010
     20 NAM        -2.7294    7.4383   -2.0439 N.4         1 KR2       0.2238
     21 CAK        -4.1379    5.3927   -2.0973 C.3         1 KR2       0.0243
     22 CAG        -3.4285    4.8415   -0.8999 C.ar        1 KR2      -0.0094
     23 CAH        -2.4954    3.7900   -1.0562 C.ar        1 KR2      -0.0298
     24 CAC        -1.7133    3.3477    0.0249 C.ar        1 KR2       0.1544
     25 FAB        -0.8259    2.4082   -0.1667 F           1 KR2      -0.1895
     26 CAD        -1.8812    3.9224    1.2977 C.ar        1 KR2       0.1560
     27 FAI        -1.1449    3.5374    2.3050 F           1 KR2      -0.1911
     28 CAE        -2.8460    4.9290    1.4864 C.ar        1 KR2      -0.0030
     29 CAF        -3.6126    5.3911    0.3977 C.ar        1 KR2       0.1274
     30 FAJ        -4.4597    6.3615    0.6137 F           1 KR2      -0.1934
     31 H1         -1.4692    2.9365  -10.0386 H           1 KR2       0.0669
     32 H2         -2.3695    1.2362  -11.5009 H           1 KR2       0.0629
     33 H3         -4.2407   -0.1327  -10.7824 H           1 KR2       0.0653
     34 H4         -5.2128    0.1959   -8.5818 H           1 KR2       0.0629
     35 H5         -4.3331    1.8887   -7.1052 H           1 KR2       0.0669
     36 H6         -5.1030    4.3403   -7.4788 H           1 KR2       0.0545
     37 H7         -4.2588    4.8000   -8.9623 H           1 KR2       0.0545
     38 H8         -4.9990    6.6884   -6.7014 H           1 KR2       0.0285
     39 H9         -5.7956    6.5365   -8.2634 H           1 KR2       0.0285
     40 H10        -4.1429    8.4952   -7.9889 H           1 KR2       0.0267
     41 H11        -4.0121    7.5342   -9.4582 H           1 KR2       0.0267
     42 H12        -1.8141    8.2107   -8.2720 H           1 KR2       0.0285
     43 H13        -1.9567    6.5406   -8.8039 H           1 KR2       0.0285
     44 H14        -2.4891    7.5592   -5.9892 H           1 KR2       0.0546
     45 H15        -0.9921    6.7807   -6.5087 H           1 KR2       0.0546
     46 H16        -1.4854    6.6111   -4.1259 H           1 KR2       0.0561
     47 H17        -1.5223    5.1458   -3.2216 H           1 KR2       0.0561
     48 H18        -3.9775    6.9306   -3.6079 H           1 KR2       0.0898
     49 H19        -3.4860    7.9186   -1.5542 H           1 KR2       0.2000
     50 H20        -2.1903    8.1165   -2.5832 H           1 KR2       0.2000
     51 H21        -2.1086    7.0115   -1.3513 H           1 KR2       0.2000
     52 H22        -4.4832    4.5666   -2.7256 H           1 KR2       0.0467
     53 H23        -5.0485    5.9080   -1.7808 H           1 KR2       0.0467
     54 H24        -2.3591    3.3491   -1.9693 H           1 KR2       0.0522
     55 H25        -2.9754    5.3458    2.4131 H           1 KR2       0.0562
@<TRIPOS>BOND
     1     1     2  ar
     2     1     6  ar
     3     2     3  ar
     4     3     4  ar
     5     4     5  ar
     6     5     6  ar
     7     6     7   1
     8     7     8   2
     9     7     9  am
    10     9    10   1
    11     9    15   1
    12    10    11   1
    13    11    12   1
    14    12    13   1
    15    13    14   1
    16    14    15   1
    17    15    16  am
    18    16    17   2
    19    16    18   1
    20    18    19   1
    21    19    20   1
    22    19    21   1
    23    21    22   1
    24    22    23  ar
    25    22    29  ar
    26    23    24  ar
    27    24    25   1
    28    24    26  ar
    29    26    27   1
    30    26    28  ar
    31    28    29  ar
    32    29    30   1
    33     1    31   1
    34     2    32   1
    35     3    33   1
    36     4    34   1
    37     5    35   1
    38    10    36   1
    39    10    37   1
    40    11    38   1
    41    11    39   1
    42    12    40   1
    43    12    41   1
    44    13    42   1
    45    13    43   1
    46    14    44   1
    47    14    45   1
    48    18    46   1
    49    18    47   1
    50    19    48   1
    51    20    49   1
    52    20    50   1
    53    20    51   1
    54    21    52   1
    55    21    53   1
    56    23    54   1
    57    28    55   1
@<TRIPOS>SUBSTRUCTURE
     1  KR2      1

