@<TRIPOS>MOLECULE
2ole_ligand_053
    55    57
SMALL
GAST_HUCK
****
This file was generated by PARSER (from files_GN.cpp)

@<TRIPOS>ATOM
      1 CAY        -3.0125    8.4908   -8.8286 C.ar        1 KR2      -0.0419
      2 CBC        -2.8354    9.2770   -9.9811 C.ar        1 KR2      -0.0562
      3 CBB        -3.5029    8.9410  -11.1720 C.ar        1 KR2      -0.0575
      4 CBA        -4.3586    7.8253  -11.2068 C.ar        1 KR2      -0.0562
      5 CAZ        -4.5381    7.0390  -10.0546 C.ar        1 KR2      -0.0419
      6 CAX        -3.8520    7.3493   -8.8528 C.ar        1 KR2       0.0519
      7 CAW        -4.0344    6.5700   -7.7103 C.2         1 KR2       0.2286
      8 OAA        -5.2035    6.4206   -7.3621 O.2         1 KR2      -0.3825
      9 NAR        -3.0626    5.9369   -7.0218 N.am        1 KR2      -0.1656
     10 CAV        -1.6874    5.8761   -7.4919 C.3         1 KR2       0.0587
     11 CDD        -0.7084    4.9041   -6.7769 C.3         1 KR2      -0.0303
     12 CNN        -1.1349    3.4123   -6.8292 C.3         1 KR2      -0.0492
     13 CAT        -2.2601    3.0435   -5.8295 C.3         1 KR2      -0.0302
     14 CAS        -3.5712    3.8427   -6.0555 C.3         1 KR2       0.0592
     15 NAQ        -3.3785    5.2789   -5.9010 N.am        1 KR2      -0.1666
     16 CAO        -3.5110    5.9488   -4.7311 C.2         1 KR2       0.2052
     17 OAP        -3.4611    7.1768   -4.7451 O.2         1 KR2      -0.3947
     18 CAN        -3.8251    5.3240   -3.4353 C.3         1 KR2       0.0838
     19 CAL        -3.3573    6.0738   -2.1438 C.3         1 KR2       0.0010
     20 NAM        -1.9916    6.6020   -2.3263 N.4         1 KR2       0.2238
     21 CAK        -3.4328    5.2187   -0.8277 C.3         1 KR2       0.0243
     22 CAG        -3.6380    3.7487   -0.9907 C.ar        1 KR2      -0.0094
     23 CAH        -4.8176    3.2956   -1.6187 C.ar        1 KR2      -0.0298
     24 CAC        -5.0557    1.9217   -1.8342 C.ar        1 KR2       0.1544
     25 FAB        -6.1398    1.5362   -2.4510 F           1 KR2      -0.1895
     26 CAD        -4.1036    0.9718   -1.4304 C.ar        1 KR2       0.1560
     27 FAI        -4.3127   -0.3032   -1.6131 F           1 KR2      -0.1911
     28 CAE        -2.9131    1.4063   -0.8133 C.ar        1 KR2      -0.0030
     29 CAF        -2.6730    2.7801   -0.6012 C.ar        1 KR2       0.1274
     30 FAJ        -1.5258    3.1388   -0.0793 F           1 KR2      -0.1934
     31 H1         -2.5372    8.7699   -7.9673 H           1 KR2       0.0669
     32 H2         -2.2226   10.0930   -9.9560 H           1 KR2       0.0629
     33 H3         -3.3793    9.5164  -12.0089 H           1 KR2       0.0653
     34 H4         -4.8461    7.5840  -12.0692 H           1 KR2       0.0629
     35 H5         -5.1603    6.2299  -10.1011 H           1 KR2       0.0669
     36 H6         -1.2485    6.8740   -7.4256 H           1 KR2       0.0545
     37 H7         -1.7009    5.5950   -8.5495 H           1 KR2       0.0545
     38 H8         -0.5838    5.2177   -5.7359 H           1 KR2       0.0285
     39 H9          0.2690    4.9938   -7.2607 H           1 KR2       0.0285
     40 H10        -0.2609    2.8008   -6.5851 H           1 KR2       0.0267
     41 H11        -1.4413    3.1470   -7.8465 H           1 KR2       0.0267
     42 H12        -1.8906    3.1963   -4.8143 H           1 KR2       0.0285
     43 H13        -2.4812    1.9764   -5.9361 H           1 KR2       0.0285
     44 H14        -4.3473    3.4664   -5.3794 H           1 KR2       0.0546
     45 H15        -3.9345    3.6235   -7.0653 H           1 KR2       0.0546
     46 H16        -3.3513    4.3405   -3.3931 H           1 KR2       0.0561
     47 H17        -4.9066    5.1794   -3.3897 H           1 KR2       0.0561
     48 H18        -3.9956    6.9464   -2.0068 H           1 KR2       0.0898
     49 H19        -1.6524    7.0006   -1.4437 H           1 KR2       0.2000
     50 H20        -1.9877    7.3356   -3.0469 H           1 KR2       0.2000
     51 H21        -1.3738    5.8398   -2.6103 H           1 KR2       0.2000
     52 H22        -4.2443    5.6142   -0.1973 H           1 KR2       0.0467
     53 H23        -2.5313    5.3890   -0.2289 H           1 KR2       0.0467
     54 H24        -5.5199    3.9762   -1.9153 H           1 KR2       0.0522
     55 H25        -2.2136    0.7112   -0.5370 H           1 KR2       0.0562
@<TRIPOS>BOND
     1     1     2  ar
     2     1     6  ar
     3     2     3  ar
     4     3     4  ar
     5     4     5  ar
     6     5     6  ar
     7     6     7   1
     8     7     8   2
     9     7     9  am
    10     9    10   1
    11     9    15   1
    12    10    11   1
    13    11    12   1
    14    12    13   1
    15    13    14   1
    16    14    15   1
    17    15    16  am
    18    16    17   2
    19    16    18   1
    20    18    19   1
    21    19    20   1
    22    19    21   1
    23    21    22   1
    24    22    23  ar
    25    22    29  ar
    26    23    24  ar
    27    24    25   1
    28    24    26  ar
    29    26    27   1
    30    26    28  ar
    31    28    29  ar
    32    29    30   1
    33     1    31   1
    34     2    32   1
    35     3    33   1
    36     4    34   1
    37     5    35   1
    38    10    36   1
    39    10    37   1
    40    11    38   1
    41    11    39   1
    42    12    40   1
    43    12    41   1
    44    13    42   1
    45    13    43   1
    46    14    44   1
    47    14    45   1
    48    18    46   1
    49    18    47   1
    50    19    48   1
    51    20    49   1
    52    20    50   1
    53    20    51   1
    54    21    52   1
    55    21    53   1
    56    23    54   1
    57    28    55   1
@<TRIPOS>SUBSTRUCTURE
     1  KR2      1

