@<TRIPOS>MOLECULE
2ole_ligand_014
    55    57
SMALL
GAST_HUCK
****
This file was generated by PARSER (from files_GN.cpp)

@<TRIPOS>ATOM
      1 CAY        -1.7789    1.1299   -6.6607 C.ar        1 KR2      -0.0419
      2 CBC        -1.5782   -0.1530   -7.2027 C.ar        1 KR2      -0.0562
      3 CBB        -0.7352   -0.3224   -8.3162 C.ar        1 KR2      -0.0575
      4 CBA        -0.0906    0.7899   -8.8892 C.ar        1 KR2      -0.0562
      5 CAZ        -0.2831    2.0733   -8.3450 C.ar        1 KR2      -0.0419
      6 CAX        -1.1375    2.2523   -7.2320 C.ar        1 KR2       0.0519
      7 CAW        -1.3247    3.5088   -6.6814 C.2         1 KR2       0.2286
      8 OAA        -0.4002    3.8963   -5.9753 O.2         1 KR2      -0.3825
      9 NAR        -2.4221    4.2656   -6.8528 N.am        1 KR2      -0.1656
     10 CAV        -3.5170    3.8764   -7.7292 C.3         1 KR2       0.0587
     11 CDD        -4.6904    4.8825   -7.9283 C.3         1 KR2      -0.0303
     12 CNN        -4.2738    6.2364   -8.5695 C.3         1 KR2      -0.0492
     13 CAT        -3.5159    7.2075   -7.6242 C.3         1 KR2      -0.0302
     14 CAS        -2.2293    6.5974   -7.0063 C.3         1 KR2       0.0592
     15 NAQ        -2.5178    5.4255   -6.2042 N.am        1 KR2      -0.1666
     16 CAO        -3.0154    5.4356   -4.9493 C.2         1 KR2       0.2052
     17 OAP        -3.3177    4.3623   -4.4363 O.2         1 KR2      -0.3947
     18 CAN        -3.4815    6.6205   -4.2311 C.3         1 KR2       0.0838
     19 CAL        -3.3251    6.6901   -2.6792 C.3         1 KR2       0.0010
     20 NAM        -1.9112    6.6270   -2.2770 N.4         1 KR2       0.2238
     21 CAK        -4.1778    5.6606   -1.8671 C.3         1 KR2       0.0243
     22 CAG        -4.6948    5.9894   -0.4919 C.ar        1 KR2      -0.0094
     23 CAH        -4.6145    7.2753    0.1148 C.ar        1 KR2      -0.0298
     24 CAC        -5.2185    7.5418    1.3625 C.ar        1 KR2       0.1544
     25 FAB        -5.1463    8.7431    1.8634 F           1 KR2      -0.1895
     26 CAD        -5.8995    6.5175    2.0444 C.ar        1 KR2       0.1560
     27 FAI        -6.4827    6.7565    3.1864 F           1 KR2      -0.1911
     28 CAE        -5.9557    5.2331    1.4832 C.ar        1 KR2      -0.0030
     29 CAF        -5.3733    4.9685    0.2300 C.ar        1 KR2       0.1274
     30 FAJ        -5.4899    3.7545   -0.2475 F           1 KR2      -0.1934
     31 H1         -2.3864    1.2368   -5.8440 H           1 KR2       0.0669
     32 H2         -2.0373   -0.9620   -6.7806 H           1 KR2       0.0629
     33 H3         -0.5885   -1.2572   -8.7069 H           1 KR2       0.0653
     34 H4          0.5196    0.6629   -9.6973 H           1 KR2       0.0629
     35 H5          0.1947    2.8723   -8.7716 H           1 KR2       0.0669
     36 H6         -3.9568    2.9533   -7.3358 H           1 KR2       0.0545
     37 H7         -3.1137    3.6505   -8.7210 H           1 KR2       0.0545
     38 H8         -5.1881    5.0647   -6.9723 H           1 KR2       0.0285
     39 H9         -5.4273    4.4136   -8.5883 H           1 KR2       0.0285
     40 H10        -5.1791    6.7466   -8.9086 H           1 KR2       0.0267
     41 H11        -3.6601    6.0439   -9.4530 H           1 KR2       0.0267
     42 H12        -4.1924    7.5356   -6.8293 H           1 KR2       0.0285
     43 H13        -3.2392    8.0991   -8.1947 H           1 KR2       0.0285
     44 H14        -1.6885    7.3501   -6.4249 H           1 KR2       0.0546
     45 H15        -1.5596    6.3392   -7.8329 H           1 KR2       0.0546
     46 H16        -4.5474    6.7308   -4.4575 H           1 KR2       0.0561
     47 H17        -2.9916    7.5156   -4.6146 H           1 KR2       0.0561
     48 H18        -3.6670    7.6958   -2.4243 H           1 KR2       0.0898
     49 H19        -1.8373    6.5972   -1.2558 H           1 KR2       0.2000
     50 H20        -1.4333    7.4667   -2.6096 H           1 KR2       0.2000
     51 H21        -1.4585    5.7985   -2.6670 H           1 KR2       0.2000
     52 H22        -3.5874    4.7456   -1.7843 H           1 KR2       0.0467
     53 H23        -5.0634    5.4151   -2.4569 H           1 KR2       0.0467
     54 H24        -4.1329    8.0494   -0.3542 H           1 KR2       0.0522
     55 H25        -6.4360    4.4899    1.9887 H           1 KR2       0.0562
@<TRIPOS>BOND
     1     1     2  ar
     2     1     6  ar
     3     2     3  ar
     4     3     4  ar
     5     4     5  ar
     6     5     6  ar
     7     6     7   1
     8     7     8   2
     9     7     9  am
    10     9    10   1
    11     9    15   1
    12    10    11   1
    13    11    12   1
    14    12    13   1
    15    13    14   1
    16    14    15   1
    17    15    16  am
    18    16    17   2
    19    16    18   1
    20    18    19   1
    21    19    20   1
    22    19    21   1
    23    21    22   1
    24    22    23  ar
    25    22    29  ar
    26    23    24  ar
    27    24    25   1
    28    24    26  ar
    29    26    27   1
    30    26    28  ar
    31    28    29  ar
    32    29    30   1
    33     1    31   1
    34     2    32   1
    35     3    33   1
    36     4    34   1
    37     5    35   1
    38    10    36   1
    39    10    37   1
    40    11    38   1
    41    11    39   1
    42    12    40   1
    43    12    41   1
    44    13    42   1
    45    13    43   1
    46    14    44   1
    47    14    45   1
    48    18    46   1
    49    18    47   1
    50    19    48   1
    51    20    49   1
    52    20    50   1
    53    20    51   1
    54    21    52   1
    55    21    53   1
    56    23    54   1
    57    28    55   1
@<TRIPOS>SUBSTRUCTURE
     1  KR2      1

