@<TRIPOS>MOLECULE
2ole_ligand_024
    55    57
SMALL
GAST_HUCK
****
This file was generated by PARSER (from files_GN.cpp)

@<TRIPOS>ATOM
      1 CAY        -5.5130    2.9571   -9.8867 C.ar        1 KR2      -0.0419
      2 CBC        -6.6366    2.6532  -10.6825 C.ar        1 KR2      -0.0562
      3 CBB        -7.9100    3.1204  -10.3122 C.ar        1 KR2      -0.0575
      4 CBA        -8.0655    3.8860   -9.1447 C.ar        1 KR2      -0.0562
      5 CAZ        -6.9444    4.1938   -8.3499 C.ar        1 KR2      -0.0419
      6 CAX        -5.6539    3.7440   -8.7183 C.ar        1 KR2       0.0519
      7 CAW        -4.5554    4.0873   -7.9435 C.2         1 KR2       0.2286
      8 OAA        -4.0195    3.1550   -7.3518 O.2         1 KR2      -0.3825
      9 NAR        -4.0679    5.3398   -7.8067 N.am        1 KR2      -0.1656
     10 CAV        -4.5170    6.4263   -8.6626 C.3         1 KR2       0.0587
     11 CDD        -3.7458    7.7759   -8.6117 C.3         1 KR2      -0.0303
     12 CNN        -2.2452    7.6578   -8.9841 C.3         1 KR2      -0.0492
     13 CAT        -1.3571    7.0629   -7.8625 C.3         1 KR2      -0.0302
     14 CAS        -1.7624    5.6302   -7.4291 C.3         1 KR2       0.0592
     15 NAQ        -3.1152    5.5793   -6.9050 N.am        1 KR2      -0.1666
     16 CAO        -3.4642    5.8236   -5.6198 C.2         1 KR2       0.2052
     17 OAP        -4.6573    5.8347   -5.3329 O.2         1 KR2      -0.3947
     18 CAN        -2.5230    6.1277   -4.5418 C.3         1 KR2       0.0838
     19 CAL        -3.0305    6.2510   -3.0668 C.3         1 KR2       0.0010
     20 NAM        -1.8749    6.7304   -2.2731 N.4         1 KR2       0.2238
     21 CAK        -3.5653    4.9000   -2.4933 C.3         1 KR2       0.0243
     22 CAG        -3.8415    4.9362   -1.0280 C.ar        1 KR2      -0.0094
     23 CAH        -5.1215    5.3178   -0.5610 C.ar        1 KR2      -0.0298
     24 CAC        -5.3941    5.3874    0.8175 C.ar        1 KR2       0.1544
     25 FAB        -6.5886    5.7282    1.2202 F           1 KR2      -0.1895
     26 CAD        -4.3772    5.0999    1.7488 C.ar        1 KR2       0.1560
     27 FAI        -4.6105    5.1755    3.0332 F           1 KR2      -0.1911
     28 CAE        -3.0979    4.7248    1.2982 C.ar        1 KR2      -0.0030
     29 CAF        -2.8326    4.6274   -0.0792 C.ar        1 KR2       0.1274
     30 FAJ        -1.6288    4.2729   -0.4471 F           1 KR2      -0.1934
     31 H1         -4.5908    2.6232  -10.1789 H           1 KR2       0.0669
     32 H2         -6.5229    2.0976  -11.5325 H           1 KR2       0.0629
     33 H3         -8.7240    2.9026  -10.8935 H           1 KR2       0.0653
     34 H4         -8.9923    4.2236   -8.8741 H           1 KR2       0.0629
     35 H5         -7.0802    4.7461   -7.4990 H           1 KR2       0.0669
     36 H6         -5.5621    6.6523   -8.4348 H           1 KR2       0.0545
     37 H7         -4.4732    6.0843   -9.7007 H           1 KR2       0.0545
     38 H8         -3.8558    8.2352   -7.6252 H           1 KR2       0.0285
     39 H9         -4.2112    8.4468   -9.3352 H           1 KR2       0.0285
     40 H10        -1.8678    8.6584   -9.2160 H           1 KR2       0.0267
     41 H11        -2.1403    7.0543   -9.8891 H           1 KR2       0.0267
     42 H12        -1.3796    7.7348   -7.0013 H           1 KR2       0.0285
     43 H13        -0.3256    7.0396   -8.2255 H           1 KR2       0.0285
     44 H14        -1.0332    5.2587   -6.7059 H           1 KR2       0.0546
     45 H15        -1.6758    4.9727   -8.3054 H           1 KR2       0.0546
     46 H16        -2.0560    7.0827   -4.8077 H           1 KR2       0.0561
     47 H17        -1.7382    5.3670   -4.5403 H           1 KR2       0.0561
     48 H18        -3.8091    7.0162   -3.0029 H           1 KR2       0.0898
     49 H19        -2.1092    6.8257   -1.2832 H           1 KR2       0.2000
     50 H20        -1.5620    7.6411   -2.6173 H           1 KR2       0.2000
     51 H21        -1.1053    6.0646   -2.3659 H           1 KR2       0.2000
     52 H22        -2.8508    4.0976   -2.7039 H           1 KR2       0.0467
     53 H23        -4.4815    4.6385   -3.0251 H           1 KR2       0.0467
     54 H24        -5.8645    5.5529   -1.2257 H           1 KR2       0.0522
     55 H25        -2.3563    4.5175    1.9744 H           1 KR2       0.0562
@<TRIPOS>BOND
     1     1     2  ar
     2     1     6  ar
     3     2     3  ar
     4     3     4  ar
     5     4     5  ar
     6     5     6  ar
     7     6     7   1
     8     7     8   2
     9     7     9  am
    10     9    10   1
    11     9    15   1
    12    10    11   1
    13    11    12   1
    14    12    13   1
    15    13    14   1
    16    14    15   1
    17    15    16  am
    18    16    17   2
    19    16    18   1
    20    18    19   1
    21    19    20   1
    22    19    21   1
    23    21    22   1
    24    22    23  ar
    25    22    29  ar
    26    23    24  ar
    27    24    25   1
    28    24    26  ar
    29    26    27   1
    30    26    28  ar
    31    28    29  ar
    32    29    30   1
    33     1    31   1
    34     2    32   1
    35     3    33   1
    36     4    34   1
    37     5    35   1
    38    10    36   1
    39    10    37   1
    40    11    38   1
    41    11    39   1
    42    12    40   1
    43    12    41   1
    44    13    42   1
    45    13    43   1
    46    14    44   1
    47    14    45   1
    48    18    46   1
    49    18    47   1
    50    19    48   1
    51    20    49   1
    52    20    50   1
    53    20    51   1
    54    21    52   1
    55    21    53   1
    56    23    54   1
    57    28    55   1
@<TRIPOS>SUBSTRUCTURE
     1  KR2      1

