@<TRIPOS>MOLECULE
2ole_ligand_001
    55    57
SMALL
GAST_HUCK
****
This file was generated by PARSER (from files_GN.cpp)

@<TRIPOS>ATOM
      1 CAY        -2.0018    2.9315   -5.5798 C.ar        1 KR2      -0.0419
      2 CBC        -2.6756    1.8217   -5.0420 C.ar        1 KR2      -0.0562
      3 CBB        -3.5885    1.0985   -5.8307 C.ar        1 KR2      -0.0575
      4 CBA        -3.8118    1.4771   -7.1677 C.ar        1 KR2      -0.0562
      5 CAZ        -3.1421    2.5881   -7.7073 C.ar        1 KR2      -0.0419
      6 CAX        -2.2462    3.3442   -6.9113 C.ar        1 KR2       0.0519
      7 CAW        -1.6383    4.4731   -7.4365 C.2         1 KR2       0.2286
      8 OAA        -0.7704    4.2560   -8.2797 O.2         1 KR2      -0.3825
      9 NAR        -2.0291    5.7284   -7.1521 N.am        1 KR2      -0.1656
     10 CAV        -1.5217    6.8858   -7.8655 C.3         1 KR2       0.0587
     11 CDD        -2.2974    7.1163   -9.1880 C.3         1 KR2      -0.0303
     12 CNN        -3.8088    7.4190   -9.0001 C.3         1 KR2      -0.0492
     13 CAT        -4.5921    6.2925   -8.2728 C.3         1 KR2      -0.0302
     14 CAS        -4.3343    6.2537   -6.7413 C.3         1 KR2       0.0592
     15 NAQ        -2.9869    5.9859   -6.2527 N.am        1 KR2      -0.1666
     16 CAO        -2.6598    6.1121   -4.9531 C.2         1 KR2       0.2052
     17 OAP        -1.4719    5.9991   -4.6505 O.2         1 KR2      -0.3947
     18 CAN        -3.5595    6.6391   -3.9222 C.3         1 KR2       0.0838
     19 CAL        -3.2411    6.4114   -2.4093 C.3         1 KR2       0.0010
     20 NAM        -1.8330    6.6843   -2.0728 N.4         1 KR2       0.2238
     21 CAK        -3.6796    5.0087   -1.8563 C.3         1 KR2       0.0243
     22 CAG        -4.5860    5.1398   -0.6789 C.ar        1 KR2      -0.0094
     23 CAH        -4.1212    4.8676    0.6290 C.ar        1 KR2      -0.0298
     24 CAC        -4.9324    5.1275    1.7508 C.ar        1 KR2       0.1544
     25 FAB        -4.4719    4.8816    2.9490 F           1 KR2      -0.1895
     26 CAD        -6.2181    5.6747    1.5790 C.ar        1 KR2       0.1560
     27 FAI        -6.9636    5.9663    2.6095 F           1 KR2      -0.1911
     28 CAE        -6.6994    5.9285    0.2797 C.ar        1 KR2      -0.0030
     29 CAF        -5.9007    5.6542   -0.8394 C.ar        1 KR2       0.1274
     30 FAJ        -6.3848    5.9283   -2.0235 F           1 KR2      -0.1934
     31 H1         -1.3295    3.4299   -4.9920 H           1 KR2       0.0669
     32 H2         -2.5000    1.5361   -4.0763 H           1 KR2       0.0629
     33 H3         -4.0828    0.2967   -5.4351 H           1 KR2       0.0653
     34 H4         -4.4669    0.9421   -7.7448 H           1 KR2       0.0629
     35 H5         -3.3244    2.8536   -8.6793 H           1 KR2       0.0669
     36 H6         -0.4576    6.7757   -8.0859 H           1 KR2       0.0545
     37 H7         -1.6069    7.7861   -7.2475 H           1 KR2       0.0545
     38 H8         -2.1853    6.2388   -9.8310 H           1 KR2       0.0285
     39 H9         -1.8431    7.9624   -9.7089 H           1 KR2       0.0285
     40 H10        -4.2536    7.5644   -9.9886 H           1 KR2       0.0267
     41 H11        -3.9310    8.3593   -8.4549 H           1 KR2       0.0267
     42 H12        -4.3659    5.3235   -8.7248 H           1 KR2       0.0285
     43 H13        -5.6600    6.4744   -8.4200 H           1 KR2       0.0285
     44 H14        -5.0052    5.5020   -6.3170 H           1 KR2       0.0546
     45 H15        -4.6471    7.2303   -6.3614 H           1 KR2       0.0546
     46 H16        -4.5634    6.2457   -4.0886 H           1 KR2       0.0561
     47 H17        -3.6234    7.7181   -4.0897 H           1 KR2       0.0561
     48 H18        -3.7925    7.1971   -1.8753 H           1 KR2       0.0898
     49 H19        -1.7086    6.6676   -1.0732 H           1 KR2       0.2000
     50 H20        -1.5595    7.5978   -2.4388 H           1 KR2       0.2000
     51 H21        -1.2263    5.9707   -2.4883 H           1 KR2       0.2000
     52 H22        -2.7932    4.4225   -1.5970 H           1 KR2       0.0467
     53 H23        -4.2003    4.4256   -2.6205 H           1 KR2       0.0467
     54 H24        -3.1733    4.5083    0.7731 H           1 KR2       0.0522
     55 H25        -7.6307    6.3291    0.1507 H           1 KR2       0.0562
@<TRIPOS>BOND
     1     1     2  ar
     2     1     6  ar
     3     2     3  ar
     4     3     4  ar
     5     4     5  ar
     6     5     6  ar
     7     6     7   1
     8     7     8   2
     9     7     9  am
    10     9    10   1
    11     9    15   1
    12    10    11   1
    13    11    12   1
    14    12    13   1
    15    13    14   1
    16    14    15   1
    17    15    16  am
    18    16    17   2
    19    16    18   1
    20    18    19   1
    21    19    20   1
    22    19    21   1
    23    21    22   1
    24    22    23  ar
    25    22    29  ar
    26    23    24  ar
    27    24    25   1
    28    24    26  ar
    29    26    27   1
    30    26    28  ar
    31    28    29  ar
    32    29    30   1
    33     1    31   1
    34     2    32   1
    35     3    33   1
    36     4    34   1
    37     5    35   1
    38    10    36   1
    39    10    37   1
    40    11    38   1
    41    11    39   1
    42    12    40   1
    43    12    41   1
    44    13    42   1
    45    13    43   1
    46    14    44   1
    47    14    45   1
    48    18    46   1
    49    18    47   1
    50    19    48   1
    51    20    49   1
    52    20    50   1
    53    20    51   1
    54    21    52   1
    55    21    53   1
    56    23    54   1
    57    28    55   1
@<TRIPOS>SUBSTRUCTURE
     1  KR2      1

