@<TRIPOS>MOLECULE
2ole_ligand_036
    55    57
SMALL
GAST_HUCK
****
This file was generated by PARSER (from files_GN.cpp)

@<TRIPOS>ATOM
      1 CAY        -5.7098    1.8978   -7.7762 C.ar        1 KR2      -0.0419
      2 CBC        -6.1321    0.7662   -8.4972 C.ar        1 KR2      -0.0562
      3 CBB        -5.5056    0.4272   -9.7104 C.ar        1 KR2      -0.0575
      4 CBA        -4.4650    1.2298  -10.2115 C.ar        1 KR2      -0.0562
      5 CAZ        -4.0480    2.3697   -9.4995 C.ar        1 KR2      -0.0419
      6 CAX        -4.6524    2.7041   -8.2646 C.ar        1 KR2       0.0519
      7 CAW        -4.2235    3.8065   -7.5490 C.2         1 KR2       0.2286
      8 OAA        -4.6490    4.8819   -7.9606 O.2         1 KR2      -0.3825
      9 NAR        -3.3992    3.7637   -6.4870 N.am        1 KR2      -0.1656
     10 CAV        -2.7329    2.5617   -6.0203 C.3         1 KR2       0.0587
     11 CDD        -1.4371    2.2629   -6.8145 C.3         1 KR2      -0.0303
     12 CNN        -0.3791    3.3948   -6.7618 C.3         1 KR2      -0.0492
     13 CAT        -0.8902    4.7758   -7.2506 C.3         1 KR2      -0.0302
     14 CAS        -1.8002    5.5198   -6.2265 C.3         1 KR2       0.0592
     15 NAQ        -3.0623    4.8977   -5.8641 N.am        1 KR2      -0.1666
     16 CAO        -3.8847    5.3910   -4.9145 C.2         1 KR2       0.2052
     17 OAP        -4.9498    4.8137   -4.6961 O.2         1 KR2      -0.3947
     18 CAN        -3.6940    6.5975   -4.0940 C.3         1 KR2       0.0838
     19 CAL        -3.4318    6.3954   -2.5540 C.3         1 KR2       0.0010
     20 NAM        -1.9976    6.5891   -2.2431 N.4         1 KR2       0.2238
     21 CAK        -3.9486    5.0701   -1.9023 C.3         1 KR2       0.0243
     22 CAG        -4.0289    5.0963   -0.3991 C.ar        1 KR2      -0.0094
     23 CAH        -5.2520    5.4343    0.2355 C.ar        1 KR2      -0.0298
     24 CAC        -5.3722    5.4253    1.6362 C.ar        1 KR2       0.1544
     25 FAB        -6.5180    5.7122    2.1963 F           1 KR2      -0.1895
     26 CAD        -4.2586    5.1002    2.4319 C.ar        1 KR2       0.1560
     27 FAI        -4.3539    5.0756    3.7331 F           1 KR2      -0.1911
     28 CAE        -3.0333    4.7746    1.8195 C.ar        1 KR2      -0.0030
     29 CAF        -2.9190    4.7540    0.4170 C.ar        1 KR2       0.1274
     30 FAJ        -1.7710    4.4083   -0.1032 F           1 KR2      -0.1934
     31 H1         -6.1759    2.1291   -6.8953 H           1 KR2       0.0669
     32 H2         -6.8947    0.1865   -8.1382 H           1 KR2       0.0629
     33 H3         -5.8061   -0.4032  -10.2276 H           1 KR2       0.0653
     34 H4         -4.0089    0.9815  -11.0936 H           1 KR2       0.0629
     35 H5         -3.2867    2.9419   -9.8772 H           1 KR2       0.0669
     36 H6         -3.3943    1.6966   -6.0845 H           1 KR2       0.0545
     37 H7         -2.4686    2.6581   -4.9636 H           1 KR2       0.0545
     38 H8         -1.6815    2.0570   -7.8577 H           1 KR2       0.0285
     39 H9         -0.9821    1.3591   -6.4040 H           1 KR2       0.0285
     40 H10         0.4611    3.1014   -7.3980 H           1 KR2       0.0267
     41 H11         0.0045    3.4972   -5.7444 H           1 KR2       0.0267
     42 H12        -1.4177    4.6607   -8.2017 H           1 KR2       0.0285
     43 H13        -0.0209    5.4086   -7.4382 H           1 KR2       0.0285
     44 H14        -2.0232    6.5038   -6.6521 H           1 KR2       0.0546
     45 H15        -1.2098    5.6736   -5.3165 H           1 KR2       0.0546
     46 H16        -4.5977    7.2104   -4.2011 H           1 KR2       0.0561
     47 H17        -2.9003    7.2235   -4.5079 H           1 KR2       0.0561
     48 H18        -3.9370    7.2200   -2.0403 H           1 KR2       0.0898
     49 H19        -1.8727    6.5743   -1.2275 H           1 KR2       0.2000
     50 H20        -1.6753    7.5005   -2.5891 H           1 KR2       0.2000
     51 H21        -1.4333    5.8450   -2.6595 H           1 KR2       0.2000
     52 H22        -3.3194    4.2387   -2.2278 H           1 KR2       0.0467
     53 H23        -4.9473    4.8655   -2.2895 H           1 KR2       0.0467
     54 H24        -6.0686    5.6877   -0.3272 H           1 KR2       0.0522
     55 H25        -2.2245    4.5327    2.3925 H           1 KR2       0.0562
@<TRIPOS>BOND
     1     1     2  ar
     2     1     6  ar
     3     2     3  ar
     4     3     4  ar
     5     4     5  ar
     6     5     6  ar
     7     6     7   1
     8     7     8   2
     9     7     9  am
    10     9    10   1
    11     9    15   1
    12    10    11   1
    13    11    12   1
    14    12    13   1
    15    13    14   1
    16    14    15   1
    17    15    16  am
    18    16    17   2
    19    16    18   1
    20    18    19   1
    21    19    20   1
    22    19    21   1
    23    21    22   1
    24    22    23  ar
    25    22    29  ar
    26    23    24  ar
    27    24    25   1
    28    24    26  ar
    29    26    27   1
    30    26    28  ar
    31    28    29  ar
    32    29    30   1
    33     1    31   1
    34     2    32   1
    35     3    33   1
    36     4    34   1
    37     5    35   1
    38    10    36   1
    39    10    37   1
    40    11    38   1
    41    11    39   1
    42    12    40   1
    43    12    41   1
    44    13    42   1
    45    13    43   1
    46    14    44   1
    47    14    45   1
    48    18    46   1
    49    18    47   1
    50    19    48   1
    51    20    49   1
    52    20    50   1
    53    20    51   1
    54    21    52   1
    55    21    53   1
    56    23    54   1
    57    28    55   1
@<TRIPOS>SUBSTRUCTURE
     1  KR2      1

