@<TRIPOS>MOLECULE
2ole_ligand_055
    55    57
SMALL
GAST_HUCK
****
This file was generated by PARSER (from files_GN.cpp)

@<TRIPOS>ATOM
      1 CAY        -8.5320    2.4686   -5.8193 C.ar        1 KR2      -0.0419
      2 CBC        -9.2903    1.2831   -5.7993 C.ar        1 KR2      -0.0562
      3 CBB        -8.9283    0.2296   -4.9418 C.ar        1 KR2      -0.0575
      4 CBA        -7.7895    0.3477   -4.1260 C.ar        1 KR2      -0.0562
      5 CAZ        -7.0167    1.5232   -4.1597 C.ar        1 KR2      -0.0419
      6 CAX        -7.3936    2.6045   -4.9904 C.ar        1 KR2       0.0519
      7 CAW        -6.6572    3.7788   -4.9764 C.2         1 KR2       0.2286
      8 OAA        -7.1694    4.7000   -4.3435 O.2         1 KR2      -0.3825
      9 NAR        -5.4918    3.9663   -5.6242 N.am        1 KR2      -0.1656
     10 CAV        -4.9235    2.9546   -6.4963 C.3         1 KR2       0.0587
     11 CDD        -3.6642    3.3430   -7.3198 C.3         1 KR2      -0.0303
     12 CNN        -3.8887    4.5204   -8.3085 C.3         1 KR2      -0.0492
     13 CAT        -3.9606    5.9250   -7.6495 C.3         1 KR2      -0.0302
     14 CAS        -5.0874    6.0710   -6.5965 C.3         1 KR2       0.0592
     15 NAQ        -4.8792    5.1432   -5.5043 N.am        1 KR2      -0.1666
     16 CAO        -4.0353    5.3462   -4.4705 C.2         1 KR2       0.2052
     17 OAP        -3.5804    4.3665   -3.8882 O.2         1 KR2      -0.3947
     18 CAN        -3.6430    6.6657   -3.9801 C.3         1 KR2       0.0838
     19 CAL        -3.0864    6.8427   -2.5225 C.3         1 KR2       0.0010
     20 NAM        -1.6289    6.6656   -2.4777 N.4         1 KR2       0.2238
     21 CAK        -3.8269    6.1358   -1.3344 C.3         1 KR2       0.0243
     22 CAG        -3.6258    4.6697   -1.1009 C.ar        1 KR2      -0.0094
     23 CAH        -4.7248    3.7765   -1.1894 C.ar        1 KR2      -0.0298
     24 CAC        -4.5669    2.3979   -0.9631 C.ar        1 KR2       0.1544
     25 FAB        -5.6076    1.6115   -1.0099 F           1 KR2      -0.1895
     26 CAD        -3.2946    1.8769   -0.6549 C.ar        1 KR2       0.1560
     27 FAI        -3.1221    0.5947   -0.4859 F           1 KR2      -0.1911
     28 CAE        -2.2075    2.7527   -0.4958 C.ar        1 KR2      -0.0030
     29 CAF        -2.3761    4.1365   -0.6883 C.ar        1 KR2       0.1274
     30 FAJ        -1.3489    4.9001   -0.4383 F           1 KR2      -0.1934
     31 H1         -8.8076    3.2289   -6.4450 H           1 KR2       0.0669
     32 H2        -10.1040    1.1904   -6.4055 H           1 KR2       0.0629
     33 H3         -9.4896   -0.6233   -4.9145 H           1 KR2       0.0653
     34 H4         -7.5216   -0.4219   -3.5040 H           1 KR2       0.0629
     35 H5         -6.1824    1.5881   -3.5683 H           1 KR2       0.0669
     36 H6         -5.6898    2.6382   -7.2089 H           1 KR2       0.0545
     37 H7         -4.6630    2.0874   -5.8829 H           1 KR2       0.0545
     38 H8         -3.3647    2.4638   -7.8961 H           1 KR2       0.0285
     39 H9         -2.8409    3.5812   -6.6433 H           1 KR2       0.0285
     40 H10        -4.8002    4.3436   -8.8861 H           1 KR2       0.0267
     41 H11        -3.0564    4.5298   -9.0169 H           1 KR2       0.0267
     42 H12        -4.1235    6.6689   -8.4311 H           1 KR2       0.0285
     43 H13        -2.9997    6.1500   -7.1810 H           1 KR2       0.0285
     44 H14        -6.0430    5.8630   -7.0900 H           1 KR2       0.0546
     45 H15        -5.1394    7.1036   -6.2477 H           1 KR2       0.0546
     46 H16        -4.5260    7.3035   -4.0484 H           1 KR2       0.0561
     47 H17        -2.9038    7.0767   -4.6851 H           1 KR2       0.0561
     48 H18        -3.2027    7.9099   -2.3149 H           1 KR2       0.0898
     49 H19        -1.2900    6.9126   -1.5463 H           1 KR2       0.2000
     50 H20        -1.1995    7.2981   -3.1582 H           1 KR2       0.2000
     51 H21        -1.3632    5.7106   -2.6979 H           1 KR2       0.2000
     52 H22        -4.8911    6.3583   -1.4451 H           1 KR2       0.0467
     53 H23        -3.5204    6.6332   -0.4103 H           1 KR2       0.0467
     54 H24        -5.6549    4.1327   -1.4193 H           1 KR2       0.0522
     55 H25        -1.2925    2.3913   -0.2186 H           1 KR2       0.0562
@<TRIPOS>BOND
     1     1     2  ar
     2     1     6  ar
     3     2     3  ar
     4     3     4  ar
     5     4     5  ar
     6     5     6  ar
     7     6     7   1
     8     7     8   2
     9     7     9  am
    10     9    10   1
    11     9    15   1
    12    10    11   1
    13    11    12   1
    14    12    13   1
    15    13    14   1
    16    14    15   1
    17    15    16  am
    18    16    17   2
    19    16    18   1
    20    18    19   1
    21    19    20   1
    22    19    21   1
    23    21    22   1
    24    22    23  ar
    25    22    29  ar
    26    23    24  ar
    27    24    25   1
    28    24    26  ar
    29    26    27   1
    30    26    28  ar
    31    28    29  ar
    32    29    30   1
    33     1    31   1
    34     2    32   1
    35     3    33   1
    36     4    34   1
    37     5    35   1
    38    10    36   1
    39    10    37   1
    40    11    38   1
    41    11    39   1
    42    12    40   1
    43    12    41   1
    44    13    42   1
    45    13    43   1
    46    14    44   1
    47    14    45   1
    48    18    46   1
    49    18    47   1
    50    19    48   1
    51    20    49   1
    52    20    50   1
    53    20    51   1
    54    21    52   1
    55    21    53   1
    56    23    54   1
    57    28    55   1
@<TRIPOS>SUBSTRUCTURE
     1  KR2      1

