@<TRIPOS>MOLECULE
2ole_ligand_013
    55    57
SMALL
GAST_HUCK
****
This file was generated by PARSER (from files_GN.cpp)

@<TRIPOS>ATOM
      1 CAY        -5.8726    5.0127   -9.2921 C.ar        1 KR2      -0.0419
      2 CBC        -5.2693    5.8179  -10.2746 C.ar        1 KR2      -0.0562
      3 CBB        -4.4855    6.9208   -9.8942 C.ar        1 KR2      -0.0575
      4 CBA        -4.3351    7.2299   -8.5311 C.ar        1 KR2      -0.0562
      5 CAZ        -4.9443    6.4252   -7.5518 C.ar        1 KR2      -0.0419
      6 CAX        -5.7047    5.2820   -7.9049 C.ar        1 KR2       0.0519
      7 CAW        -6.3476    4.4682   -6.9583 C.2         1 KR2       0.2286
      8 OAA        -7.5112    4.1921   -7.2375 O.2         1 KR2      -0.3825
      9 NAR        -5.7927    3.8748   -5.8748 N.am        1 KR2      -0.1656
     10 CAV        -6.5338    2.8715   -5.1201 C.3         1 KR2       0.0587
     11 CDD        -5.7978    2.0484   -4.0216 C.3         1 KR2      -0.0303
     12 CNN        -4.5814    1.2276   -4.5379 C.3         1 KR2      -0.0492
     13 CAT        -3.3155    2.0749   -4.8433 C.3         1 KR2      -0.0302
     14 CAS        -3.5436    3.2032   -5.8876 C.3         1 KR2       0.0592
     15 NAQ        -4.5532    4.1539   -5.4619 N.am        1 KR2      -0.1666
     16 CAO        -4.3672    5.1325   -4.5496 C.2         1 KR2       0.2052
     17 OAP        -5.3325    5.8348   -4.2477 O.2         1 KR2      -0.3947
     18 CAN        -3.0869    5.5805   -3.9967 C.3         1 KR2       0.0838
     19 CAL        -3.1444    6.0494   -2.5049 C.3         1 KR2       0.0010
     20 NAM        -1.8738    6.7163   -2.1813 N.4         1 KR2       0.2238
     21 CAK        -3.4194    4.8787   -1.5071 C.3         1 KR2       0.0243
     22 CAG        -4.2563    5.2304   -0.3198 C.ar        1 KR2      -0.0094
     23 CAH        -3.7302    5.1603    0.9919 C.ar        1 KR2      -0.0298
     24 CAC        -4.5525    5.3924    2.1195 C.ar        1 KR2       0.1544
     25 FAB        -4.0539    5.2701    3.3228 F           1 KR2      -0.1895
     26 CAD        -5.9098    5.7167    1.9455 C.ar        1 KR2       0.1560
     27 FAI        -6.6951    5.9172    2.9736 F           1 KR2      -0.1911
     28 CAE        -6.4421    5.8012    0.6443 C.ar        1 KR2      -0.0030
     29 CAF        -5.6327    5.5555   -0.4800 C.ar        1 KR2       0.1274
     30 FAJ        -6.1976    5.5948   -1.6557 F           1 KR2      -0.1934
     31 H1         -6.4409    4.2174   -9.6014 H           1 KR2       0.0669
     32 H2         -5.4040    5.6039  -11.2678 H           1 KR2       0.0629
     33 H3         -4.0490    7.5112  -10.6095 H           1 KR2       0.0653
     34 H4         -3.8010    8.0593   -8.2601 H           1 KR2       0.0629
     35 H5         -4.8713    6.7251   -6.5837 H           1 KR2       0.0669
     36 H6         -6.9271    2.1405   -5.8298 H           1 KR2       0.0545
     37 H7         -7.3860    3.3670   -4.6441 H           1 KR2       0.0545
     38 H8         -6.5247    1.3514   -3.5934 H           1 KR2       0.0285
     39 H9         -5.4798    2.7113   -3.2149 H           1 KR2       0.0285
     40 H10        -4.8711    0.6630   -5.4292 H           1 KR2       0.0267
     41 H11        -4.3157    0.4984   -3.7657 H           1 KR2       0.0267
     42 H12        -2.5377    1.4043   -5.2207 H           1 KR2       0.0285
     43 H13        -2.9447    2.5006   -3.9076 H           1 KR2       0.0285
     44 H14        -3.8480    2.7248   -6.8271 H           1 KR2       0.0546
     45 H15        -2.6009    3.7108   -6.1043 H           1 KR2       0.0546
     46 H16        -2.7611    6.4207   -4.6161 H           1 KR2       0.0561
     47 H17        -2.3194    4.8078   -4.0741 H           1 KR2       0.0561
     48 H18        -3.9135    6.8232   -2.4100 H           1 KR2       0.0898
     49 H19        -1.8671    6.9941   -1.1982 H           1 KR2       0.2000
     50 H20        -1.7610    7.5448   -2.7697 H           1 KR2       0.2000
     51 H21        -1.0971    6.0770   -2.3564 H           1 KR2       0.2000
     52 H22        -2.4587    4.4550   -1.1942 H           1 KR2       0.0467
     53 H23        -3.9403    4.0681   -2.0189 H           1 KR2       0.0467
     54 H24        -2.7489    4.9065    1.1412 H           1 KR2       0.0522
     55 H25        -7.4330    6.0261    0.5241 H           1 KR2       0.0562
@<TRIPOS>BOND
     1     1     2  ar
     2     1     6  ar
     3     2     3  ar
     4     3     4  ar
     5     4     5  ar
     6     5     6  ar
     7     6     7   1
     8     7     8   2
     9     7     9  am
    10     9    10   1
    11     9    15   1
    12    10    11   1
    13    11    12   1
    14    12    13   1
    15    13    14   1
    16    14    15   1
    17    15    16  am
    18    16    17   2
    19    16    18   1
    20    18    19   1
    21    19    20   1
    22    19    21   1
    23    21    22   1
    24    22    23  ar
    25    22    29  ar
    26    23    24  ar
    27    24    25   1
    28    24    26  ar
    29    26    27   1
    30    26    28  ar
    31    28    29  ar
    32    29    30   1
    33     1    31   1
    34     2    32   1
    35     3    33   1
    36     4    34   1
    37     5    35   1
    38    10    36   1
    39    10    37   1
    40    11    38   1
    41    11    39   1
    42    12    40   1
    43    12    41   1
    44    13    42   1
    45    13    43   1
    46    14    44   1
    47    14    45   1
    48    18    46   1
    49    18    47   1
    50    19    48   1
    51    20    49   1
    52    20    50   1
    53    20    51   1
    54    21    52   1
    55    21    53   1
    56    23    54   1
    57    28    55   1
@<TRIPOS>SUBSTRUCTURE
     1  KR2      1

