@<TRIPOS>MOLECULE
2ole_ligand_030
    55    57
SMALL
GAST_HUCK
****
This file was generated by PARSER (from files_GN.cpp)

@<TRIPOS>ATOM
      1 CAY        -6.7660    5.6267   -5.5844 C.ar        1 KR2      -0.0419
      2 CBC        -7.8606    5.0252   -4.9358 C.ar        1 KR2      -0.0562
      3 CBB        -8.4649    3.8904   -5.4954 C.ar        1 KR2      -0.0575
      4 CBA        -7.9748    3.3459   -6.6947 C.ar        1 KR2      -0.0562
      5 CAZ        -6.8899    3.9569   -7.3506 C.ar        1 KR2      -0.0419
      6 CAX        -6.2743    5.1065   -6.8022 C.ar        1 KR2       0.0519
      7 CAW        -5.2375    5.7400   -7.4692 C.2         1 KR2       0.2286
      8 OAA        -5.5562    6.2532   -8.5357 O.2         1 KR2      -0.3825
      9 NAR        -3.9566    5.7510   -7.0493 N.am        1 KR2      -0.1656
     10 CAV        -2.9019    6.3171   -7.8747 C.3         1 KR2       0.0587
     11 CDD        -1.4390    6.1687   -7.3634 C.3         1 KR2      -0.0303
     12 CNN        -0.9291    4.7006   -7.2867 C.3         1 KR2      -0.0492
     13 CAT        -1.5152    3.8377   -6.1352 C.3         1 KR2      -0.0302
     14 CAS        -3.0663    3.7923   -6.1127 C.3         1 KR2       0.0592
     15 NAQ        -3.6179    5.1197   -5.9268 N.am        1 KR2      -0.1666
     16 CAO        -3.6560    5.7708   -4.7413 C.2         1 KR2       0.2052
     17 OAP        -4.0259    6.9377   -4.7088 O.2         1 KR2      -0.3947
     18 CAN        -3.5041    5.1221   -3.4435 C.3         1 KR2       0.0838
     19 CAL        -3.1191    5.9807   -2.1957 C.3         1 KR2       0.0010
     20 NAM        -1.8323    6.6714   -2.3993 N.4         1 KR2       0.2238
     21 CAK        -3.0620    5.0711   -0.9081 C.3         1 KR2       0.0243
     22 CAG        -4.0292    5.3555    0.1925 C.ar        1 KR2      -0.0094
     23 CAH        -5.3518    5.7865   -0.0920 C.ar        1 KR2      -0.0298
     24 CAC        -6.2862    5.9936    0.9336 C.ar        1 KR2       0.1544
     25 FAB        -7.4689    6.4541    0.6270 F           1 KR2      -0.1895
     26 CAD        -5.9483    5.7048    2.2681 C.ar        1 KR2       0.1560
     27 FAI        -6.8217    5.8614    3.2226 F           1 KR2      -0.1911
     28 CAE        -4.6601    5.2232    2.5694 C.ar        1 KR2      -0.0030
     29 CAF        -3.7103    5.0521    1.5442 C.ar        1 KR2       0.1274
     30 FAJ        -2.5406    4.5702    1.8822 F           1 KR2      -0.1934
     31 H1         -6.3509    6.4587   -5.1688 H           1 KR2       0.0669
     32 H2         -8.2171    5.4246   -4.0643 H           1 KR2       0.0629
     33 H3         -9.2683    3.4623   -5.0332 H           1 KR2       0.0653
     34 H4         -8.4157    2.5151   -7.0963 H           1 KR2       0.0629
     35 H5         -6.5496    3.5515   -8.2262 H           1 KR2       0.0669
     36 H6         -3.1057    7.3840   -7.9963 H           1 KR2       0.0545
     37 H7         -2.9464    5.8610   -8.8686 H           1 KR2       0.0545
     38 H8         -1.3467    6.6439   -6.3833 H           1 KR2       0.0285
     39 H9         -0.7889    6.7195   -8.0481 H           1 KR2       0.0285
     40 H10         0.1569    4.7280   -7.1524 H           1 KR2       0.0267
     41 H11        -1.1235    4.2040   -8.2399 H           1 KR2       0.0267
     42 H12        -1.1373    4.2162   -5.1845 H           1 KR2       0.0285
     43 H13        -1.1424    2.8128   -6.2493 H           1 KR2       0.0285
     44 H14        -3.4196    3.1013   -5.3461 H           1 KR2       0.0546
     45 H15        -3.4056    3.3599   -7.0602 H           1 KR2       0.0546
     46 H16        -2.7442    4.3494   -3.4940 H           1 KR2       0.0561
     47 H17        -4.4522    4.6261   -3.2391 H           1 KR2       0.0561
     48 H18        -3.8533    6.7828   -2.0759 H           1 KR2       0.0898
     49 H19        -1.5196    7.0816   -1.5124 H           1 KR2       0.2000
     50 H20        -1.9170    7.4075   -3.0985 H           1 KR2       0.2000
     51 H21        -1.1384    5.9976   -2.7083 H           1 KR2       0.2000
     52 H22        -2.0443    5.0854   -0.5222 H           1 KR2       0.0467
     53 H23        -3.2386    4.0283   -1.1733 H           1 KR2       0.0467
     54 H24        -5.6453    5.9555   -1.0553 H           1 KR2       0.0522
     55 H25        -4.4185    4.9911    3.5358 H           1 KR2       0.0562
@<TRIPOS>BOND
     1     1     2  ar
     2     1     6  ar
     3     2     3  ar
     4     3     4  ar
     5     4     5  ar
     6     5     6  ar
     7     6     7   1
     8     7     8   2
     9     7     9  am
    10     9    10   1
    11     9    15   1
    12    10    11   1
    13    11    12   1
    14    12    13   1
    15    13    14   1
    16    14    15   1
    17    15    16  am
    18    16    17   2
    19    16    18   1
    20    18    19   1
    21    19    20   1
    22    19    21   1
    23    21    22   1
    24    22    23  ar
    25    22    29  ar
    26    23    24  ar
    27    24    25   1
    28    24    26  ar
    29    26    27   1
    30    26    28  ar
    31    28    29  ar
    32    29    30   1
    33     1    31   1
    34     2    32   1
    35     3    33   1
    36     4    34   1
    37     5    35   1
    38    10    36   1
    39    10    37   1
    40    11    38   1
    41    11    39   1
    42    12    40   1
    43    12    41   1
    44    13    42   1
    45    13    43   1
    46    14    44   1
    47    14    45   1
    48    18    46   1
    49    18    47   1
    50    19    48   1
    51    20    49   1
    52    20    50   1
    53    20    51   1
    54    21    52   1
    55    21    53   1
    56    23    54   1
    57    28    55   1
@<TRIPOS>SUBSTRUCTURE
     1  KR2      1

