@<TRIPOS>MOLECULE
2ole_ligand_012
    55    57
SMALL
GAST_HUCK
****
This file was generated by PARSER (from files_GN.cpp)

@<TRIPOS>ATOM
      1 CAY        -8.0281    0.6748   -4.2559 C.ar        1 KR2      -0.0419
      2 CBC        -9.3426    0.2753   -4.5648 C.ar        1 KR2      -0.0562
      3 CBB       -10.1774    1.1166   -5.3196 C.ar        1 KR2      -0.0575
      4 CBA        -9.7077    2.3678   -5.7507 C.ar        1 KR2      -0.0562
      5 CAZ        -8.4009    2.7767   -5.4202 C.ar        1 KR2      -0.0419
      6 CAX        -7.5329    1.9281   -4.6964 C.ar        1 KR2       0.0519
      7 CAW        -6.2360    2.3367   -4.3860 C.2         1 KR2       0.2286
      8 OAA        -5.9356    2.2738   -3.2004 O.2         1 KR2      -0.3825
      9 NAR        -5.3101    2.7586   -5.2745 N.am        1 KR2      -0.1656
     10 CAV        -5.4756    2.6267   -6.7165 C.3         1 KR2       0.0587
     11 CDD        -4.2675    2.9600   -7.6367 C.3         1 KR2      -0.0303
     12 CNN        -3.0190    2.0671   -7.4105 C.3         1 KR2      -0.0492
     13 CAT        -2.2187    2.3706   -6.1152 C.3         1 KR2      -0.0302
     14 CAS        -3.0616    2.2495   -4.8203 C.3         1 KR2       0.0592
     15 NAQ        -4.1422    3.2113   -4.8180 N.am        1 KR2      -0.1666
     16 CAO        -4.0135    4.5190   -4.5053 C.2         1 KR2       0.2052
     17 OAP        -4.9950    5.2459   -4.6365 O.2         1 KR2      -0.3947
     18 CAN        -2.8111    5.2029   -4.0283 C.3         1 KR2       0.0838
     19 CAL        -2.9654    5.7897   -2.5909 C.3         1 KR2       0.0010
     20 NAM        -1.8351    6.6872   -2.3042 N.4         1 KR2       0.2238
     21 CAK        -3.0877    4.6874   -1.4808 C.3         1 KR2       0.0243
     22 CAG        -4.0779    5.0072   -0.4128 C.ar        1 KR2      -0.0094
     23 CAH        -5.4301    5.2175   -0.7800 C.ar        1 KR2      -0.0298
     24 CAC        -6.4120    5.5147    0.1790 C.ar        1 KR2       0.1544
     25 FAB        -7.6376    5.7402   -0.2129 F           1 KR2      -0.1895
     26 CAD        -6.0608    5.5644    1.5425 C.ar        1 KR2       0.1560
     27 FAI        -6.9643    5.8245    2.4484 F           1 KR2      -0.1911
     28 CAE        -4.7290    5.3289    1.9308 C.ar        1 KR2      -0.0030
     29 CAF        -3.7401    5.0567    0.9635 C.ar        1 KR2       0.1274
     30 FAJ        -2.5219    4.8306    1.3841 F           1 KR2      -0.1934
     31 H1         -7.4347    0.0409   -3.7146 H           1 KR2       0.0669
     32 H2         -9.6874   -0.6319   -4.2481 H           1 KR2       0.0629
     33 H3        -11.1303    0.8255   -5.5500 H           1 KR2       0.0653
     34 H4        -10.3116    2.9860   -6.2971 H           1 KR2       0.0629
     35 H5         -8.1075    3.7137   -5.7064 H           1 KR2       0.0669
     36 H6         -6.2708    3.2941   -7.0443 H           1 KR2       0.0545
     37 H7         -5.7900    1.6014   -6.9413 H           1 KR2       0.0545
     38 H8         -4.0002    4.0128   -7.5184 H           1 KR2       0.0285
     39 H9         -4.5984    2.8270   -8.6716 H           1 KR2       0.0285
     40 H10        -2.3462    2.2158   -8.2577 H           1 KR2       0.0267
     41 H11        -3.3205    1.0163   -7.4144 H           1 KR2       0.0267
     42 H12        -1.7946    3.3753   -6.1850 H           1 KR2       0.0285
     43 H13        -1.3822    1.6668   -6.0548 H           1 KR2       0.0285
     44 H14        -2.4289    2.3591   -3.9389 H           1 KR2       0.0546
     45 H15        -3.4532    1.2274   -4.7678 H           1 KR2       0.0546
     46 H16        -2.5964    6.0197   -4.7253 H           1 KR2       0.0561
     47 H17        -1.9316    4.5602   -4.0339 H           1 KR2       0.0561
     48 H18        -3.8370    6.4480   -2.5963 H           1 KR2       0.0898
     49 H19        -1.8773    7.0045   -1.3332 H           1 KR2       0.2000
     50 H20        -1.8629    7.4962   -2.9300 H           1 KR2       0.2000
     51 H21        -0.9571    6.1866   -2.4517 H           1 KR2       0.2000
     52 H22        -2.0967    4.4912   -1.0652 H           1 KR2       0.0467
     53 H23        -3.4140    3.7433   -1.9168 H           1 KR2       0.0467
     54 H24        -5.7123    5.1728   -1.7620 H           1 KR2       0.0522
     55 H25        -4.4822    5.3598    2.9248 H           1 KR2       0.0562
@<TRIPOS>BOND
     1     1     2  ar
     2     1     6  ar
     3     2     3  ar
     4     3     4  ar
     5     4     5  ar
     6     5     6  ar
     7     6     7   1
     8     7     8   2
     9     7     9  am
    10     9    10   1
    11     9    15   1
    12    10    11   1
    13    11    12   1
    14    12    13   1
    15    13    14   1
    16    14    15   1
    17    15    16  am
    18    16    17   2
    19    16    18   1
    20    18    19   1
    21    19    20   1
    22    19    21   1
    23    21    22   1
    24    22    23  ar
    25    22    29  ar
    26    23    24  ar
    27    24    25   1
    28    24    26  ar
    29    26    27   1
    30    26    28  ar
    31    28    29  ar
    32    29    30   1
    33     1    31   1
    34     2    32   1
    35     3    33   1
    36     4    34   1
    37     5    35   1
    38    10    36   1
    39    10    37   1
    40    11    38   1
    41    11    39   1
    42    12    40   1
    43    12    41   1
    44    13    42   1
    45    13    43   1
    46    14    44   1
    47    14    45   1
    48    18    46   1
    49    18    47   1
    50    19    48   1
    51    20    49   1
    52    20    50   1
    53    20    51   1
    54    21    52   1
    55    21    53   1
    56    23    54   1
    57    28    55   1
@<TRIPOS>SUBSTRUCTURE
     1  KR2      1

