@<TRIPOS>MOLECULE
2ole_ligand_021
    55    57
SMALL
GAST_HUCK
****
This file was generated by PARSER (from files_GN.cpp)

@<TRIPOS>ATOM
      1 CAY        -5.0558    0.2395   -4.1563 C.ar        1 KR2      -0.0419
      2 CBC        -5.6588   -1.0254   -4.3000 C.ar        1 KR2      -0.0562
      3 CBB        -5.0243   -2.0274   -5.0529 C.ar        1 KR2      -0.0575
      4 CBA        -3.7838   -1.7660   -5.6617 C.ar        1 KR2      -0.0562
      5 CAZ        -3.1741   -0.5082   -5.5121 C.ar        1 KR2      -0.0419
      6 CAX        -3.8128    0.5226   -4.7744 C.ar        1 KR2       0.0519
      7 CAW        -3.2319    1.7793   -4.6305 C.2         1 KR2       0.2286
      8 OAA        -2.9789    2.0928   -3.4740 O.2         1 KR2      -0.3825
      9 NAR        -3.0203    2.6680   -5.6260 N.am        1 KR2      -0.1656
     10 CAV        -3.3612    2.4000   -7.0155 C.3         1 KR2       0.0587
     11 CDD        -3.1032    3.5247   -8.0613 C.3         1 KR2      -0.0303
     12 CNN        -1.6049    3.9154   -8.2081 C.3         1 KR2      -0.0492
     13 CAT        -1.0282    4.7751   -7.0508 C.3         1 KR2      -0.0302
     14 CAS        -1.1774    4.1328   -5.6462 C.3         1 KR2       0.0592
     15 NAQ        -2.5633    3.8921   -5.3176 N.am        1 KR2      -0.1666
     16 CAO        -3.4260    4.8317   -4.8722 C.2         1 KR2       0.2052
     17 OAP        -4.6191    4.5419   -4.8691 O.2         1 KR2      -0.3947
     18 CAN        -3.1506    6.2151   -4.4680 C.3         1 KR2       0.0838
     19 CAL        -3.3065    6.5625   -2.9336 C.3         1 KR2       0.0010
     20 NAM        -1.9815    6.6411   -2.2909 N.4         1 KR2       0.2238
     21 CAK        -4.2285    5.6169   -2.1009 C.3         1 KR2       0.0243
     22 CAG        -4.6148    5.9234   -0.6924 C.ar        1 KR2      -0.0094
     23 CAH        -4.5232    7.2202   -0.1285 C.ar        1 KR2      -0.0298
     24 CAC        -5.0470    7.4965    1.1507 C.ar        1 KR2       0.1544
     25 FAB        -4.9674    8.7049    1.6420 F           1 KR2      -0.1895
     26 CAD        -5.6622    6.4731    1.8955 C.ar        1 KR2       0.1560
     27 FAI        -6.1648    6.7128    3.0761 F           1 KR2      -0.1911
     28 CAE        -5.7356    5.1759    1.3661 C.ar        1 KR2      -0.0030
     29 CAF        -5.2320    4.9038    0.0812 C.ar        1 KR2       0.1274
     30 FAJ        -5.3832    3.6884   -0.3818 F           1 KR2      -0.1934
     31 H1         -5.5409    0.9558   -3.6127 H           1 KR2       0.0669
     32 H2         -6.5659   -1.2113   -3.8628 H           1 KR2       0.0629
     33 H3         -5.4636   -2.9448   -5.1591 H           1 KR2       0.0653
     34 H4         -3.3241   -2.4929   -6.2147 H           1 KR2       0.0629
     35 H5         -2.2550   -0.3522   -5.9359 H           1 KR2       0.0669
     36 H6         -4.4247    2.1486   -7.0642 H           1 KR2       0.0545
     37 H7         -2.7999    1.5276   -7.3566 H           1 KR2       0.0545
     38 H8         -3.6964    4.4094   -7.8158 H           1 KR2       0.0285
     39 H9         -3.4559    3.1621   -9.0314 H           1 KR2       0.0285
     40 H10        -1.4968    4.4841   -9.1359 H           1 KR2       0.0267
     41 H11        -1.0043    3.0079   -8.3167 H           1 KR2       0.0267
     42 H12        -1.5129    5.7556   -7.0585 H           1 KR2       0.0285
     43 H13         0.0365    4.9393   -7.2365 H           1 KR2       0.0285
     44 H14        -0.7022    4.7618   -4.8926 H           1 KR2       0.0546
     45 H15        -0.6135    3.1933   -5.6516 H           1 KR2       0.0546
     46 H16        -3.8345    6.8460   -5.0401 H           1 KR2       0.0561
     47 H17        -2.1591    6.5292   -4.7968 H           1 KR2       0.0561
     48 H18        -3.7336    7.5655   -2.8770 H           1 KR2       0.0898
     49 H19        -2.0685    6.6950   -1.2725 H           1 KR2       0.2000
     50 H20        -1.4977    7.4798   -2.6150 H           1 KR2       0.2000
     51 H21        -1.4404    5.8142   -2.5395 H           1 KR2       0.2000
     52 H22        -3.7521    4.6339   -2.1114 H           1 KR2       0.0467
     53 H23        -5.1773    5.5500   -2.6336 H           1 KR2       0.0467
     54 H24        -4.1097    7.9895   -0.6548 H           1 KR2       0.0522
     55 H25        -6.1651    4.4281    1.9157 H           1 KR2       0.0562
@<TRIPOS>BOND
     1     1     2  ar
     2     1     6  ar
     3     2     3  ar
     4     3     4  ar
     5     4     5  ar
     6     5     6  ar
     7     6     7   1
     8     7     8   2
     9     7     9  am
    10     9    10   1
    11     9    15   1
    12    10    11   1
    13    11    12   1
    14    12    13   1
    15    13    14   1
    16    14    15   1
    17    15    16  am
    18    16    17   2
    19    16    18   1
    20    18    19   1
    21    19    20   1
    22    19    21   1
    23    21    22   1
    24    22    23  ar
    25    22    29  ar
    26    23    24  ar
    27    24    25   1
    28    24    26  ar
    29    26    27   1
    30    26    28  ar
    31    28    29  ar
    32    29    30   1
    33     1    31   1
    34     2    32   1
    35     3    33   1
    36     4    34   1
    37     5    35   1
    38    10    36   1
    39    10    37   1
    40    11    38   1
    41    11    39   1
    42    12    40   1
    43    12    41   1
    44    13    42   1
    45    13    43   1
    46    14    44   1
    47    14    45   1
    48    18    46   1
    49    18    47   1
    50    19    48   1
    51    20    49   1
    52    20    50   1
    53    20    51   1
    54    21    52   1
    55    21    53   1
    56    23    54   1
    57    28    55   1
@<TRIPOS>SUBSTRUCTURE
     1  KR2      1

