@<TRIPOS>MOLECULE
2ole_ligand_015
    55    57
SMALL
GAST_HUCK
****
This file was generated by PARSER (from files_GN.cpp)

@<TRIPOS>ATOM
      1 CAY        -4.6632    1.4763   -6.9000 C.ar        1 KR2      -0.0419
      2 CBC        -4.0894    0.2900   -6.4082 C.ar        1 KR2      -0.0562
      3 CBB        -2.6935    0.1819   -6.2864 C.ar        1 KR2      -0.0575
      4 CBA        -1.8734    1.2532   -6.6804 C.ar        1 KR2      -0.0562
      5 CAZ        -2.4489    2.4318   -7.1906 C.ar        1 KR2      -0.0419
      6 CAX        -3.8540    2.5778   -7.2821 C.ar        1 KR2       0.0519
      7 CAW        -4.4463    3.7671   -7.7259 C.2         1 KR2       0.2286
      8 OAA        -5.3530    3.6188   -8.5370 O.2         1 KR2      -0.3825
      9 NAR        -4.1352    5.0096   -7.2897 N.am        1 KR2      -0.1656
     10 CAV        -4.8580    6.1855   -7.7521 C.3         1 KR2       0.0587
     11 CDD        -4.2406    6.7484   -9.0543 C.3         1 KR2      -0.0303
     12 CNN        -2.8162    7.3235   -8.8568 C.3         1 KR2      -0.0492
     13 CAT        -1.7902    6.2954   -8.3173 C.3         1 KR2      -0.0302
     14 CAS        -1.9628    5.9203   -6.8191 C.3         1 KR2       0.0592
     15 NAQ        -3.1734    5.2371   -6.3821 N.am        1 KR2      -0.1666
     16 CAO        -3.3593    4.8719   -5.0936 C.2         1 KR2       0.2052
     17 OAP        -4.4280    4.3624   -4.7720 O.2         1 KR2      -0.3947
     18 CAN        -2.3830    4.9593   -4.0020 C.3         1 KR2       0.0838
     19 CAL        -2.8877    5.7284   -2.7272 C.3         1 KR2       0.0010
     20 NAM        -1.8593    6.6823   -2.2687 N.4         1 KR2       0.2238
     21 CAK        -3.2702    4.7502   -1.5696 C.3         1 KR2       0.0243
     22 CAG        -4.0138    5.3664   -0.4300 C.ar        1 KR2      -0.0094
     23 CAH        -3.4538    5.3724    0.8724 C.ar        1 KR2      -0.0298
     24 CAC        -4.1544    5.9199    1.9640 C.ar        1 KR2       0.1544
     25 FAB        -3.6143    5.9075    3.1526 F           1 KR2      -0.1895
     26 CAD        -5.4406    6.4566    1.7729 C.ar        1 KR2       0.1560
     27 FAI        -6.1113    6.9605    2.7746 F           1 KR2      -0.1911
     28 CAE        -6.0217    6.4349    0.4926 C.ar        1 KR2      -0.0030
     29 CAF        -5.3227    5.8866   -0.6003 C.ar        1 KR2       0.1274
     30 FAJ        -5.9265    5.8369   -1.7579 F           1 KR2      -0.1934
     31 H1         -5.6843    1.5369   -6.9563 H           1 KR2       0.0669
     32 H2         -4.6875   -0.4920   -6.1307 H           1 KR2       0.0629
     33 H3         -2.2764   -0.6746   -5.9180 H           1 KR2       0.0653
     34 H4         -0.8578    1.1716   -6.6011 H           1 KR2       0.0629
     35 H5         -1.8274    3.1762   -7.5099 H           1 KR2       0.0669
     36 H6         -4.8482    6.9710   -6.9893 H           1 KR2       0.0545
     37 H7         -5.9137    5.9578   -7.9267 H           1 KR2       0.0545
     38 H8         -4.8813    7.5478   -9.4312 H           1 KR2       0.0285
     39 H9         -4.2170    5.9644   -9.8161 H           1 KR2       0.0285
     40 H10        -2.8588    8.1855   -8.1848 H           1 KR2       0.0267
     41 H11        -2.4630    7.6843   -9.8267 H           1 KR2       0.0267
     42 H12        -0.7947    6.7347   -8.4340 H           1 KR2       0.0285
     43 H13        -1.8205    5.3908   -8.9287 H           1 KR2       0.0285
     44 H14        -1.8579    6.8440   -6.2408 H           1 KR2       0.0546
     45 H15        -1.1078    5.2802   -6.5852 H           1 KR2       0.0546
     46 H16        -1.4550    5.4188   -4.3378 H           1 KR2       0.0561
     47 H17        -2.1016    3.9343   -3.7400 H           1 KR2       0.0561
     48 H18        -3.7583    6.3366   -2.9885 H           1 KR2       0.0898
     49 H19        -2.0438    6.9891   -1.3136 H           1 KR2       0.2000
     50 H20        -1.8366    7.4934   -2.8919 H           1 KR2       0.2000
     51 H21        -0.9475    6.2268   -2.2923 H           1 KR2       0.2000
     52 H22        -2.3450    4.2820   -1.2169 H           1 KR2       0.0467
     53 H23        -3.8906    3.9445   -1.9722 H           1 KR2       0.0467
     54 H24        -2.5265    4.9726    1.0370 H           1 KR2       0.0522
     55 H25        -6.9654    6.8026    0.3584 H           1 KR2       0.0562
@<TRIPOS>BOND
     1     1     2  ar
     2     1     6  ar
     3     2     3  ar
     4     3     4  ar
     5     4     5  ar
     6     5     6  ar
     7     6     7   1
     8     7     8   2
     9     7     9  am
    10     9    10   1
    11     9    15   1
    12    10    11   1
    13    11    12   1
    14    12    13   1
    15    13    14   1
    16    14    15   1
    17    15    16  am
    18    16    17   2
    19    16    18   1
    20    18    19   1
    21    19    20   1
    22    19    21   1
    23    21    22   1
    24    22    23  ar
    25    22    29  ar
    26    23    24  ar
    27    24    25   1
    28    24    26  ar
    29    26    27   1
    30    26    28  ar
    31    28    29  ar
    32    29    30   1
    33     1    31   1
    34     2    32   1
    35     3    33   1
    36     4    34   1
    37     5    35   1
    38    10    36   1
    39    10    37   1
    40    11    38   1
    41    11    39   1
    42    12    40   1
    43    12    41   1
    44    13    42   1
    45    13    43   1
    46    14    44   1
    47    14    45   1
    48    18    46   1
    49    18    47   1
    50    19    48   1
    51    20    49   1
    52    20    50   1
    53    20    51   1
    54    21    52   1
    55    21    53   1
    56    23    54   1
    57    28    55   1
@<TRIPOS>SUBSTRUCTURE
     1  KR2      1

