@<TRIPOS>MOLECULE
2ole_ligand_056
    55    57
SMALL
GAST_HUCK
****
This file was generated by PARSER (from files_GN.cpp)

@<TRIPOS>ATOM
      1 CAY        -1.0085    3.0079   -9.6487 C.ar        1 KR2      -0.0419
      2 CBC        -0.4179    1.8659  -10.2231 C.ar        1 KR2      -0.0562
      3 CBB        -0.1009    0.7556   -9.4143 C.ar        1 KR2      -0.0575
      4 CBA        -0.3466    0.8062   -8.0325 C.ar        1 KR2      -0.0562
      5 CAZ        -0.9232    1.9543   -7.4537 C.ar        1 KR2      -0.0419
      6 CAX        -1.2985    3.0587   -8.2650 C.ar        1 KR2       0.0519
      7 CAW        -1.8936    4.1828   -7.7044 C.2         1 KR2       0.2286
      8 OAA        -1.3081    5.2411   -7.9209 O.2         1 KR2      -0.3825
      9 NAR        -3.0442    4.2030   -6.9917 N.am        1 KR2      -0.1656
     10 CAV        -3.9974    3.1111   -6.9528 C.3         1 KR2       0.0587
     11 CDD        -4.8197    3.0464   -8.2609 C.3         1 KR2      -0.0303
     12 CNN        -5.7116    4.2942   -8.5004 C.3         1 KR2      -0.0492
     13 CAT        -4.9466    5.6464   -8.5265 C.3         1 KR2      -0.0302
     14 CAS        -4.4595    6.1336   -7.1275 C.3         1 KR2       0.0592
     15 NAQ        -3.4577    5.3414   -6.4267 N.am        1 KR2      -0.1666
     16 CAO        -2.9407    5.7004   -5.2305 C.2         1 KR2       0.2052
     17 OAP        -2.0244    5.0278   -4.7687 O.2         1 KR2      -0.3947
     18 CAN        -3.2451    6.9264   -4.4857 C.3         1 KR2       0.0838
     19 CAL        -3.3337    6.8275   -2.9299 C.3         1 KR2       0.0010
     20 NAM        -1.9968    6.6613   -2.3231 N.4         1 KR2       0.2238
     21 CAK        -4.4481    5.8567   -2.4049 C.3         1 KR2       0.0243
     22 CAG        -3.9803    4.5226   -1.9348 C.ar        1 KR2      -0.0094
     23 CAH        -4.1293    3.3743   -2.7477 C.ar        1 KR2      -0.0298
     24 CAC        -3.7073    2.1071   -2.2993 C.ar        1 KR2       0.1544
     25 FAB        -3.8518    1.0666   -3.0747 F           1 KR2      -0.1895
     26 CAD        -3.1366    1.9732   -1.0193 C.ar        1 KR2       0.1560
     27 FAI        -2.7480    0.8032   -0.5833 F           1 KR2      -0.1911
     28 CAE        -2.9872    3.1027   -0.1979 C.ar        1 KR2      -0.0030
     29 CAF        -3.4165    4.3658   -0.6410 C.ar        1 KR2       0.1274
     30 FAJ        -3.3003    5.3749    0.1833 F           1 KR2      -0.1934
     31 H1         -1.2451    3.7952  -10.2589 H           1 KR2       0.0669
     32 H2         -0.2273    1.8364  -11.2253 H           1 KR2       0.0629
     33 H3          0.3102   -0.0786   -9.8332 H           1 KR2       0.0653
     34 H4         -0.1053    0.0060   -7.4432 H           1 KR2       0.0629
     35 H5         -1.0604    1.9789   -6.4425 H           1 KR2       0.0669
     36 H6         -4.6991    3.2464   -6.1203 H           1 KR2       0.0545
     37 H7         -3.5095    2.1538   -6.7715 H           1 KR2       0.0545
     38 H8         -5.4639    2.1651   -8.2243 H           1 KR2       0.0285
     39 H9         -4.1432    2.9210   -9.1101 H           1 KR2       0.0285
     40 H10        -6.4910    4.3339   -7.7355 H           1 KR2       0.0267
     41 H11        -6.2113    4.1699   -9.4639 H           1 KR2       0.0267
     42 H12        -5.6244    6.4081   -8.9220 H           1 KR2       0.0285
     43 H13        -4.0989    5.5803   -9.2122 H           1 KR2       0.0285
     44 H14        -5.3470    6.2209   -6.4951 H           1 KR2       0.0546
     45 H15        -4.0503    7.1381   -7.2736 H           1 KR2       0.0546
     46 H16        -4.1879    7.3635   -4.8199 H           1 KR2       0.0561
     47 H17        -2.4680    7.6473   -4.7456 H           1 KR2       0.0561
     48 H18        -3.6255    7.8246   -2.5990 H           1 KR2       0.0898
     49 H19        -2.0630    6.6705   -1.3045 H           1 KR2       0.2000
     50 H20        -1.4225    7.4561   -2.6056 H           1 KR2       0.2000
     51 H21        -1.5486    5.7968   -2.6270 H           1 KR2       0.2000
     52 H22        -5.2082    5.7308   -3.1806 H           1 KR2       0.0467
     53 H23        -4.9758    6.3365   -1.5769 H           1 KR2       0.0467
     54 H24        -4.5514    3.4552   -3.6740 H           1 KR2       0.0522
     55 H25        -2.5720    3.0077    0.7328 H           1 KR2       0.0562
@<TRIPOS>BOND
     1     1     2  ar
     2     1     6  ar
     3     2     3  ar
     4     3     4  ar
     5     4     5  ar
     6     5     6  ar
     7     6     7   1
     8     7     8   2
     9     7     9  am
    10     9    10   1
    11     9    15   1
    12    10    11   1
    13    11    12   1
    14    12    13   1
    15    13    14   1
    16    14    15   1
    17    15    16  am
    18    16    17   2
    19    16    18   1
    20    18    19   1
    21    19    20   1
    22    19    21   1
    23    21    22   1
    24    22    23  ar
    25    22    29  ar
    26    23    24  ar
    27    24    25   1
    28    24    26  ar
    29    26    27   1
    30    26    28  ar
    31    28    29  ar
    32    29    30   1
    33     1    31   1
    34     2    32   1
    35     3    33   1
    36     4    34   1
    37     5    35   1
    38    10    36   1
    39    10    37   1
    40    11    38   1
    41    11    39   1
    42    12    40   1
    43    12    41   1
    44    13    42   1
    45    13    43   1
    46    14    44   1
    47    14    45   1
    48    18    46   1
    49    18    47   1
    50    19    48   1
    51    20    49   1
    52    20    50   1
    53    20    51   1
    54    21    52   1
    55    21    53   1
    56    23    54   1
    57    28    55   1
@<TRIPOS>SUBSTRUCTURE
     1  KR2      1

