@<TRIPOS>MOLECULE
2p4y_ligand_049
    61    65
SMALL
GAST_HUCK
****
This file was generated by PARSER (from files_GN.cpp)

@<TRIPOS>ATOM
      1 C1          5.7498    3.1878   14.3593 C.ar        1 C03      -0.0494
      2 C2          5.7166    4.3631   13.5850 C.ar        1 C03      -0.0824
      3 C3          6.7677    4.6144   12.6821 C.ar        1 C03      -0.0320
      4 C4          7.8373    3.7260   12.5471 C.ar        1 C03       0.0592
      5 C5          7.8400    2.5214   13.2850 C.ar        1 C03      -0.0175
      6 C6          6.8126    2.2705   14.2186 C.ar        1 C03       0.0845
      7 C10         6.9756    5.6620   11.7927 C.2         1 C03      -0.0105
      8 C11         8.2003    5.4101   11.1633 C.2         1 C03       0.0574
      9 N12         8.7235    4.2548   11.6641 N.pl3       1 C03      -0.2466
     10 C13         6.0803    6.7181   11.5680 C.2         1 C03       0.0368
     11 C14         8.8181    6.2727   10.1277 C.3         1 C03      -0.0027
     12 C18         9.9853    3.6593   11.2920 C.3         1 C03       0.0846
     13 O19         6.8449    1.1573   15.0123 O.3         1 C03      -0.2340
     14 C20         7.7218    1.2461   16.1592 C.3         1 C03       0.5447
     15 F21         7.5132    0.1241   16.9175 F           1 C03      -0.1402
     16 F22         7.4569    2.3337   16.9630 F           1 C03      -0.1402
     17 F23         9.0504    1.2605   15.8054 F           1 C03      -0.1402
     18 C24        11.1984    4.3646   11.8153 C.ar        1 C03      -0.0091
     19 C27        12.1666    4.8497   10.8958 C.ar        1 C03      -0.0287
     20 C28        13.3220    5.5212   11.3377 C.ar        1 C03       0.0876
     21 C29        13.5595    5.6798   12.7102 C.ar        1 C03      -0.0391
     22 C30        12.6249    5.2035   13.6420 C.ar        1 C03      -0.0631
     23 C31        11.4529    4.5458   13.2049 C.ar        1 C03       0.0319
     24 CL1        10.4375    3.9495   14.4274 Cl          1 C03      -0.0872
     25 O36        14.2681    5.9947   10.4720 O.3         1 C03      -0.3024
     26 C37        13.9072    6.8423    9.3595 C.3         1 C03       0.1302
     27 C38        14.9554    7.9769    9.2945 C.3         1 C03      -0.0222
     28 C42        12.5277    7.3923    9.3403 C.2         1 C03       0.0683
     29 O44        12.1260    8.2580   10.2984 O.co2       1 C03      -0.5660
     30 O45        11.6073    6.9603    8.4542 O.co2       1 C03      -0.5660
     31 N46         5.2912    6.8432   10.4850 N.2         1 C03      -0.1679
     32 O47         4.5203    7.8978   10.5899 O.3         1 C03      -0.1876
     33 C48         4.7975    8.5071   11.7645 C.ar        1 C03       0.1433
     34 C49         5.7905    7.7789   12.4129 C.ar        1 C03       0.0134
     35 C50         4.2477    9.6644   12.3427 C.ar        1 C03       0.0032
     36 C51         4.7425   10.1032   13.5940 C.ar        1 C03       0.0851
     37 C52         5.7543    9.3625   14.2516 C.ar        1 C03      -0.0395
     38 C53         6.2816    8.1892   13.6654 C.ar        1 C03      -0.0670
     39 O57         4.1900   11.2027   14.1905 O.3         1 C03      -0.3234
     40 C58         4.7436   12.4467   13.7335 C.3         1 C03       0.0592
     41 H1          5.0025    3.0138   15.0348 H           1 C03       0.0459
     42 H2          4.9615    5.0436   13.7042 H           1 C03       0.0504
     43 H3          8.5840    1.8411   13.1814 H           1 C03       0.0444
     44 H4          8.1867    7.1243    9.8663 H           1 C03       0.0449
     45 H5          8.9927    5.6902    9.2186 H           1 C03       0.0449
     46 H6          9.7702    6.6601   10.4964 H           1 C03       0.0449
     47 H7          9.9892    3.6009   10.2019 H           1 C03       0.0764
     48 H8         10.0490    2.6281   11.6378 H           1 C03       0.0764
     49 H9         12.0295    4.7276    9.8894 H           1 C03       0.0480
     50 H10        14.3972    6.1637   13.0373 H           1 C03       0.0487
     51 H11        12.8122    5.3377   14.6404 H           1 C03       0.0578
     52 H12        14.0278    6.2293    8.4621 H           1 C03       0.0818
     53 H13        14.7940    8.6033    8.4155 H           1 C03       0.0276
     54 H14        15.9617    7.5546    9.2394 H           1 C03       0.0276
     55 H15        14.8944    8.6011   10.1898 H           1 C03       0.0276
     56 H16         3.5081   10.1732   11.8573 H           1 C03       0.0476
     57 H17         6.1010    9.6726   15.1638 H           1 C03       0.0490
     58 H18         7.0105    7.6520   14.1458 H           1 C03       0.0582
     59 H19         4.2170   13.2573   14.2394 H           1 C03       0.0578
     60 H20         4.6065   12.5746   12.6557 H           1 C03       0.0578
     61 H21         5.8063   12.5218   13.9810 H           1 C03       0.0578
@<TRIPOS>BOND
     1     1     2  ar
     2     1     6  ar
     3     2     3  ar
     4     3     4  ar
     5     3     7   1
     6     4     5  ar
     7     4     9   1
     8     5     6  ar
     9     6    13   1
    10     7     8   2
    11     7    10   1
    12     8     9   1
    13     8    11   1
    14     9    12   1
    15    10    31   2
    16    10    34   1
    17    12    18   1
    18    13    14   1
    19    14    15   1
    20    14    16   1
    21    14    17   1
    22    18    19  ar
    23    18    23  ar
    24    19    20  ar
    25    20    21  ar
    26    20    25   1
    27    21    22  ar
    28    22    23  ar
    29    23    24   1
    30    25    26   1
    31    26    27   1
    32    26    28   1
    33    28    29  ar
    34    28    30  ar
    35    31    32   1
    36    32    33   1
    37    33    34  ar
    38    33    35  ar
    39    34    38  ar
    40    35    36  ar
    41    36    37  ar
    42    36    39   1
    43    37    38  ar
    44    39    40   1
    45     1    41   1
    46     2    42   1
    47     5    43   1
    48    11    44   1
    49    11    45   1
    50    11    46   1
    51    12    47   1
    52    12    48   1
    53    19    49   1
    54    21    50   1
    55    22    51   1
    56    26    52   1
    57    27    53   1
    58    27    54   1
    59    27    55   1
    60    35    56   1
    61    37    57   1
    62    38    58   1
    63    40    59   1
    64    40    60   1
    65    40    61   1
@<TRIPOS>SUBSTRUCTURE
     1  C03      1

