@<TRIPOS>MOLECULE
2p4y_ligand_089
    61    65
SMALL
GAST_HUCK
****
This file was generated by PARSER (from files_GN.cpp)

@<TRIPOS>ATOM
      1 C1          8.8662    7.6028    9.7258 C.ar        1 C03      -0.0494
      2 C2         10.1543    7.2324   10.1578 C.ar        1 C03      -0.0824
      3 C3         10.3139    6.0227   10.8621 C.ar        1 C03      -0.0320
      4 C4          9.2153    5.1992   11.1242 C.ar        1 C03       0.0592
      5 C5          7.9232    5.5729   10.6748 C.ar        1 C03      -0.0175
      6 C6          7.7431    6.7804    9.9662 C.ar        1 C03       0.0845
      7 C10        11.4330    5.4321   11.4480 C.2         1 C03      -0.0105
      8 C11        10.9707    4.2437   12.0408 C.2         1 C03       0.0574
      9 N12         9.6239    4.1371   11.8568 N.pl3       1 C03      -0.2466
     10 C13        12.7571    5.9329   11.4247 C.2         1 C03       0.0368
     11 C14        11.8209    3.2427   12.7312 C.3         1 C03      -0.0027
     12 C18         8.7773    3.0727   12.3455 C.3         1 C03       0.0846
     13 O19         6.5146    7.2704    9.5852 O.3         1 C03      -0.2340
     14 C20         5.5655    6.3742    8.9731 C.3         1 C03       0.5447
     15 F21         4.5641    7.1344    8.4178 F           1 C03      -0.1402
     16 F22         4.9896    5.5527    9.9159 F           1 C03      -0.1402
     17 F23         6.1033    5.6099    7.9623 F           1 C03      -0.1402
     18 C24         8.6854    3.0128   13.8324 C.ar        1 C03      -0.0091
     19 C27         9.0886    1.8303   14.4924 C.ar        1 C03      -0.0287
     20 C28         8.9641    1.6856   15.8837 C.ar        1 C03       0.0876
     21 C29         8.3872    2.7218   16.6430 C.ar        1 C03      -0.0391
     22 C30         8.0128    3.9201   16.0161 C.ar        1 C03      -0.0631
     23 C31         8.1585    4.0766   14.6208 C.ar        1 C03       0.0319
     24 CL1         7.6536    5.5658   13.9841 Cl          1 C03      -0.0872
     25 O36         9.4047    0.5234   16.4468 O.3         1 C03      -0.3024
     26 C37        10.6406    0.5528   17.2031 C.3         1 C03       0.1302
     27 C38        10.3364    0.9248   18.6698 C.3         1 C03      -0.0222
     28 C42        11.7484    1.3264   16.5874 C.2         1 C03       0.0683
     29 O44        12.1695    2.5061   17.0996 O.co2       1 C03      -0.5660
     30 O45        12.2227    0.9557   15.3758 O.co2       1 C03      -0.5660
     31 N46        13.3246    6.4807   10.3286 N.2         1 C03      -0.1679
     32 O47        14.5759    6.7863   10.5582 O.3         1 C03      -0.1876
     33 C48        14.8778    6.4503   11.8296 C.ar        1 C03       0.1433
     34 C49        13.7307    5.9271   12.4207 C.ar        1 C03       0.0134
     35 C50        16.0858    6.5621   12.5358 C.ar        1 C03       0.0032
     36 C51        16.1422    6.1414   13.8819 C.ar        1 C03       0.0851
     37 C52        14.9590    5.6803   14.5135 C.ar        1 C03      -0.0395
     38 C53        13.7494    5.5597   13.7818 C.ar        1 C03      -0.0670
     39 O57        17.3464    6.2653   14.5322 O.3         1 C03      -0.3234
     40 C58        17.7314    5.1681   15.3745 C.3         1 C03       0.0592
     41 H1          8.7379    8.4948    9.2478 H           1 C03       0.0459
     42 H2         10.9509    7.8489    9.9837 H           1 C03       0.0504
     43 H3          7.0999    4.9981   10.8931 H           1 C03       0.0444
     44 H4         12.8806    3.3900   12.5138 H           1 C03       0.0449
     45 H5         11.5584    2.2311   12.4083 H           1 C03       0.0449
     46 H6         11.6674    3.3192   13.8071 H           1 C03       0.0449
     47 H7          9.1546    2.1357   11.9269 H           1 C03       0.0764
     48 H8          7.7533    3.1520   11.9792 H           1 C03       0.0764
     49 H9          9.4874    1.0538   13.9621 H           1 C03       0.0480
     50 H10         8.2517    2.6194   17.6512 H           1 C03       0.0487
     51 H11         7.6169    4.6749   16.5838 H           1 C03       0.0578
     52 H12        10.9888   -0.4799   17.2340 H           1 C03       0.0818
     53 H13        11.1938    0.7149   19.3057 H           1 C03       0.0276
     54 H14         9.4956    0.3233   19.0263 H           1 C03       0.0276
     55 H15        10.0892    1.9836   18.7613 H           1 C03       0.0276
     56 H16        16.9133    6.9459   12.0724 H           1 C03       0.0476
     57 H17        14.9807    5.4372   15.5070 H           1 C03       0.0490
     58 H18        12.8971    5.2447   14.2436 H           1 C03       0.0582
     59 H19        18.7696    5.3260   15.6876 H           1 C03       0.0578
     60 H20        17.6806    4.2096   14.8509 H           1 C03       0.0578
     61 H21        17.1093    5.1330   16.2696 H           1 C03       0.0578
@<TRIPOS>BOND
     1     1     2  ar
     2     1     6  ar
     3     2     3  ar
     4     3     4  ar
     5     3     7   1
     6     4     5  ar
     7     4     9   1
     8     5     6  ar
     9     6    13   1
    10     7     8   2
    11     7    10   1
    12     8     9   1
    13     8    11   1
    14     9    12   1
    15    10    31   2
    16    10    34   1
    17    12    18   1
    18    13    14   1
    19    14    15   1
    20    14    16   1
    21    14    17   1
    22    18    19  ar
    23    18    23  ar
    24    19    20  ar
    25    20    21  ar
    26    20    25   1
    27    21    22  ar
    28    22    23  ar
    29    23    24   1
    30    25    26   1
    31    26    27   1
    32    26    28   1
    33    28    29  ar
    34    28    30  ar
    35    31    32   1
    36    32    33   1
    37    33    34  ar
    38    33    35  ar
    39    34    38  ar
    40    35    36  ar
    41    36    37  ar
    42    36    39   1
    43    37    38  ar
    44    39    40   1
    45     1    41   1
    46     2    42   1
    47     5    43   1
    48    11    44   1
    49    11    45   1
    50    11    46   1
    51    12    47   1
    52    12    48   1
    53    19    49   1
    54    21    50   1
    55    22    51   1
    56    26    52   1
    57    27    53   1
    58    27    54   1
    59    27    55   1
    60    35    56   1
    61    37    57   1
    62    38    58   1
    63    40    59   1
    64    40    60   1
    65    40    61   1
@<TRIPOS>SUBSTRUCTURE
     1  C03      1

