@<TRIPOS>MOLECULE
2p4y_ligand_083
    61    65
SMALL
GAST_HUCK
****
This file was generated by PARSER (from files_GN.cpp)

@<TRIPOS>ATOM
      1 C1         10.6498   11.3563    8.4023 C.ar        1 C03      -0.0494
      2 C2         11.4429   10.2446    8.7530 C.ar        1 C03      -0.0824
      3 C3         12.7775   10.4414    9.1707 C.ar        1 C03      -0.0320
      4 C4         13.3366   11.7237    9.1783 C.ar        1 C03       0.0592
      5 C5         12.5429   12.8305    8.7970 C.ar        1 C03      -0.0175
      6 C6         11.1889   12.6545    8.4462 C.ar        1 C03       0.0845
      7 C10        13.7764    9.5414    9.5567 C.2         1 C03      -0.0105
      8 C11        14.9171   10.3229    9.8134 C.2         1 C03       0.0574
      9 N12        14.6384   11.6352    9.5610 N.pl3       1 C03      -0.2466
     10 C13        13.7127    8.1240    9.5268 C.2         1 C03       0.0368
     11 C14        16.2303    9.8210   10.2885 C.3         1 C03      -0.0027
     12 C18        15.6049   12.7177    9.5650 C.3         1 C03       0.0846
     13 O19        10.4350   13.7423    8.0893 O.3         1 C03      -0.2340
     14 C20         9.5259   14.2089    9.1061 C.3         1 C03       0.5447
     15 F21         8.9505   15.3625    8.6347 F           1 C03      -0.1402
     16 F22        10.1535   14.5228   10.2925 F           1 C03      -0.1402
     17 F23         8.5123   13.3090    9.3528 F           1 C03      -0.1402
     18 C24        15.0951   14.0590    9.9737 C.ar        1 C03      -0.0091
     19 C27        15.0547   15.0998    9.0134 C.ar        1 C03      -0.0287
     20 C28        14.4665   16.3446    9.3048 C.ar        1 C03       0.0876
     21 C29        13.9798   16.5915   10.6003 C.ar        1 C03      -0.0391
     22 C30        14.0439   15.5851   11.5798 C.ar        1 C03      -0.0631
     23 C31        14.5914   14.3245   11.2762 C.ar        1 C03       0.0319
     24 CL1        14.5946   13.1531   12.5027 Cl          1 C03      -0.0872
     25 O36        14.4591   17.2808    8.3038 O.3         1 C03      -0.3024
     26 C37        13.1817   17.7414    7.7977 C.3         1 C03       0.1302
     27 C38        12.4131   16.6591    6.9916 C.3         1 C03      -0.0222
     28 C42        13.4084   18.9350    6.9526 C.2         1 C03       0.0683
     29 O44        12.3824   19.4911    6.2697 O.co2       1 C03      -0.5660
     30 O45        14.6276   19.5119    6.8429 O.co2       1 C03      -0.5660
     31 N46        14.7867    7.3569    9.2491 N.2         1 C03      -0.1679
     32 O47        14.4787    6.0849    9.2126 O.3         1 C03      -0.1876
     33 C48        13.1547    5.9670    9.4500 C.ar        1 C03       0.1433
     34 C49        12.6393    7.2416    9.6705 C.ar        1 C03       0.0134
     35 C50        12.3446    4.8225    9.4830 C.ar        1 C03       0.0032
     36 C51        10.9643    4.9715    9.7520 C.ar        1 C03       0.0851
     37 C52        10.4341    6.2632    9.9888 C.ar        1 C03      -0.0395
     38 C53        11.2735    7.3970    9.9721 C.ar        1 C03      -0.0670
     39 O57        10.1585    3.8666    9.6911 O.3         1 C03      -0.3234
     40 C58         9.2893    3.6891   10.8247 C.3         1 C03       0.0592
     41 H1          9.6848   11.2140    8.1007 H           1 C03       0.0459
     42 H2         11.0397    9.3028    8.7011 H           1 C03       0.0504
     43 H3         12.9258   13.7714    8.7726 H           1 C03       0.0444
     44 H4         16.2121    8.7684   10.5586 H           1 C03       0.0449
     45 H5         16.5225   10.3595   11.1876 H           1 C03       0.0449
     46 H6         16.9902    9.9681    9.5193 H           1 C03       0.0449
     47 H7         16.0229   12.7458    8.5527 H           1 C03       0.0764
     48 H8         16.4484   12.5098   10.2282 H           1 C03       0.0764
     49 H9         15.4180   14.9404    8.0694 H           1 C03       0.0480
     50 H10        13.5763   17.4980   10.8336 H           1 C03       0.0487
     51 H11        13.6761   15.7770   12.5153 H           1 C03       0.0578
     52 H12        12.5549   18.0627    8.6341 H           1 C03       0.0818
     53 H13        11.4627   17.0504    6.6220 H           1 C03       0.0276
     54 H14        12.1925   15.8034    7.6290 H           1 C03       0.0276
     55 H15        13.0077   16.3153    6.1415 H           1 C03       0.0276
     56 H16        12.7457    3.8973    9.2946 H           1 C03       0.0476
     57 H17         9.4322    6.3841   10.1693 H           1 C03       0.0490
     58 H18        10.8908    8.3336   10.1341 H           1 C03       0.0582
     59 H19         8.7872    2.7244   10.7246 H           1 C03       0.0578
     60 H20         8.5231    4.4659   10.8560 H           1 C03       0.0578
     61 H21         9.8495    3.6875   11.7629 H           1 C03       0.0578
@<TRIPOS>BOND
     1     1     2  ar
     2     1     6  ar
     3     2     3  ar
     4     3     4  ar
     5     3     7   1
     6     4     5  ar
     7     4     9   1
     8     5     6  ar
     9     6    13   1
    10     7     8   2
    11     7    10   1
    12     8     9   1
    13     8    11   1
    14     9    12   1
    15    10    31   2
    16    10    34   1
    17    12    18   1
    18    13    14   1
    19    14    15   1
    20    14    16   1
    21    14    17   1
    22    18    19  ar
    23    18    23  ar
    24    19    20  ar
    25    20    21  ar
    26    20    25   1
    27    21    22  ar
    28    22    23  ar
    29    23    24   1
    30    25    26   1
    31    26    27   1
    32    26    28   1
    33    28    29  ar
    34    28    30  ar
    35    31    32   1
    36    32    33   1
    37    33    34  ar
    38    33    35  ar
    39    34    38  ar
    40    35    36  ar
    41    36    37  ar
    42    36    39   1
    43    37    38  ar
    44    39    40   1
    45     1    41   1
    46     2    42   1
    47     5    43   1
    48    11    44   1
    49    11    45   1
    50    11    46   1
    51    12    47   1
    52    12    48   1
    53    19    49   1
    54    21    50   1
    55    22    51   1
    56    26    52   1
    57    27    53   1
    58    27    54   1
    59    27    55   1
    60    35    56   1
    61    37    57   1
    62    38    58   1
    63    40    59   1
    64    40    60   1
    65    40    61   1
@<TRIPOS>SUBSTRUCTURE
     1  C03      1

