@<TRIPOS>MOLECULE
2p4y_ligand_013
    61    65
SMALL
GAST_HUCK
****
This file was generated by PARSER (from files_GN.cpp)

@<TRIPOS>ATOM
      1 C1          7.6992    2.8306   14.0646 C.ar        1 C03      -0.0494
      2 C2          7.4369    3.8164   13.0921 C.ar        1 C03      -0.0824
      3 C3          8.5166    4.4885   12.4913 C.ar        1 C03      -0.0320
      4 C4          9.8379    4.1878   12.8239 C.ar        1 C03       0.0592
      5 C5         10.0972    3.1876   13.7872 C.ar        1 C03      -0.0175
      6 C6          9.0319    2.5304   14.4444 C.ar        1 C03       0.0845
      7 C10         8.5480    5.4922   11.5333 C.2         1 C03      -0.0105
      8 C11         9.8979    5.7939   11.3105 C.2         1 C03       0.0574
      9 N12        10.6637    5.0094   12.1246 N.pl3       1 C03      -0.2466
     10 C13         7.4246    6.0695   10.9195 C.2         1 C03       0.0368
     11 C14        10.3911    6.8028   10.3368 C.3         1 C03      -0.0027
     12 C18        12.1109    5.0277   12.2145 C.3         1 C03       0.0846
     13 O19         9.3725    1.5792   15.3815 O.3         1 C03      -0.2340
     14 C20         8.5879    1.4335   16.5882 C.3         1 C03       0.5447
     15 F21         9.3518    0.7517   17.5012 F           1 C03      -0.1402
     16 F22         7.4664    0.6742   16.3496 F           1 C03      -0.1402
     17 F23         8.2235    2.6272   17.1763 F           1 C03      -0.1402
     18 C24        12.7519    5.0606   13.5736 C.ar        1 C03      -0.0091
     19 C27        14.0347    4.4649   13.7017 C.ar        1 C03      -0.0287
     20 C28        14.6837    4.3390   14.9464 C.ar        1 C03       0.0876
     21 C29        14.0133    4.7738   16.1055 C.ar        1 C03      -0.0391
     22 C30        12.7744    5.4260   16.0005 C.ar        1 C03      -0.0631
     23 C31        12.1609    5.6164   14.7443 C.ar        1 C03       0.0319
     24 CL1        10.7280    6.5334   14.7347 Cl          1 C03      -0.0872
     25 O36        15.9046    3.7110   14.9900 O.3         1 C03      -0.3024
     26 C37        16.9854    4.3253   15.7375 C.3         1 C03       0.1302
     27 C38        17.4708    5.6518   15.0912 C.3         1 C03      -0.0222
     28 C42        18.0559    3.3108   15.8399 C.2         1 C03       0.0683
     29 O44        17.7180    2.0624   16.2299 O.co2       1 C03      -0.5660
     30 O45        19.3311    3.6783   16.1054 O.co2       1 C03      -0.5660
     31 N46         7.0608    5.8850    9.6341 N.2         1 C03      -0.1679
     32 O47         5.9449    6.5249    9.3857 O.3         1 C03      -0.1876
     33 C48         5.5428    7.1550   10.5119 C.ar        1 C03       0.1433
     34 C49         6.4730    6.8905   11.5123 C.ar        1 C03       0.0134
     35 C50         4.4182    7.9610   10.7544 C.ar        1 C03       0.0032
     36 C51         4.2707    8.5517   12.0311 C.ar        1 C03       0.0851
     37 C52         5.2214    8.2858   13.0460 C.ar        1 C03      -0.0395
     38 C53         6.3271    7.4459   12.7962 C.ar        1 C03      -0.0670
     39 O57         3.1783    9.3188   12.3462 O.3         1 C03      -0.3234
     40 C58         3.1360   10.5968   11.6831 C.3         1 C03       0.0592
     41 H1          6.9157    2.3596   14.5134 H           1 C03       0.0459
     42 H2          6.4768    4.0495   12.8320 H           1 C03       0.0504
     43 H3         11.0570    2.9465   14.0239 H           1 C03       0.0444
     44 H4          9.5764    7.3226    9.8316 H           1 C03       0.0449
     45 H5         11.0023    6.3115    9.5759 H           1 C03       0.0449
     46 H6         10.9965    7.5521   10.8499 H           1 C03       0.0449
     47 H7         12.5399    5.8584   11.6530 H           1 C03       0.0764
     48 H8         12.4253    4.1192   11.6943 H           1 C03       0.0764
     49 H9         14.5079    4.0911   12.8738 H           1 C03       0.0480
     50 H10        14.4264    4.6191   17.0258 H           1 C03       0.0487
     51 H11        12.3257    5.7610   16.8553 H           1 C03       0.0578
     52 H12        16.6664    4.5398   16.7624 H           1 C03       0.0818
     53 H13        18.2657    6.1051   15.6864 H           1 C03       0.0276
     54 H14        16.6461    6.3653   15.0378 H           1 C03       0.0276
     55 H15        17.8433    5.4738   14.0806 H           1 C03       0.0276
     56 H16         3.7354    8.1258   10.0165 H           1 C03       0.0476
     57 H17         5.1073    8.7044   13.9701 H           1 C03       0.0490
     58 H18         7.0094    7.2521   13.5287 H           1 C03       0.0582
     59 H19         2.3325   11.1861   12.1305 H           1 C03       0.0578
     60 H20         2.9149   10.4735   10.6189 H           1 C03       0.0578
     61 H21         4.0718   11.1541   11.8005 H           1 C03       0.0578
@<TRIPOS>BOND
     1     1     2  ar
     2     1     6  ar
     3     2     3  ar
     4     3     4  ar
     5     3     7   1
     6     4     5  ar
     7     4     9   1
     8     5     6  ar
     9     6    13   1
    10     7     8   2
    11     7    10   1
    12     8     9   1
    13     8    11   1
    14     9    12   1
    15    10    31   2
    16    10    34   1
    17    12    18   1
    18    13    14   1
    19    14    15   1
    20    14    16   1
    21    14    17   1
    22    18    19  ar
    23    18    23  ar
    24    19    20  ar
    25    20    21  ar
    26    20    25   1
    27    21    22  ar
    28    22    23  ar
    29    23    24   1
    30    25    26   1
    31    26    27   1
    32    26    28   1
    33    28    29  ar
    34    28    30  ar
    35    31    32   1
    36    32    33   1
    37    33    34  ar
    38    33    35  ar
    39    34    38  ar
    40    35    36  ar
    41    36    37  ar
    42    36    39   1
    43    37    38  ar
    44    39    40   1
    45     1    41   1
    46     2    42   1
    47     5    43   1
    48    11    44   1
    49    11    45   1
    50    11    46   1
    51    12    47   1
    52    12    48   1
    53    19    49   1
    54    21    50   1
    55    22    51   1
    56    26    52   1
    57    27    53   1
    58    27    54   1
    59    27    55   1
    60    35    56   1
    61    37    57   1
    62    38    58   1
    63    40    59   1
    64    40    60   1
    65    40    61   1
@<TRIPOS>SUBSTRUCTURE
     1  C03      1

