@<TRIPOS>MOLECULE
2p4y_ligand_096
    61    65
SMALL
GAST_HUCK
****
This file was generated by PARSER (from files_GN.cpp)

@<TRIPOS>ATOM
      1 C1          9.5892    6.9096   10.6749 C.ar        1 C03      -0.0494
      2 C2         10.7291    6.1470   11.0096 C.ar        1 C03      -0.0824
      3 C3         10.6390    5.2130   12.0561 C.ar        1 C03      -0.0320
      4 C4          9.4616    5.0368   12.7826 C.ar        1 C03       0.0592
      5 C5          8.3441    5.8472   12.4784 C.ar        1 C03      -0.0175
      6 C6          8.3900    6.7515   11.3984 C.ar        1 C03       0.0845
      7 C10        11.5982    4.3770   12.6118 C.2         1 C03      -0.0105
      8 C11        10.9695    3.7137   13.6762 C.2         1 C03       0.0574
      9 N12         9.6578    4.0937   13.7394 N.pl3       1 C03      -0.2466
     10 C13        12.9447    4.3021   12.1962 C.2         1 C03       0.0368
     11 C14        11.6669    2.7753   14.5858 C.3         1 C03      -0.0027
     12 C18         8.6468    3.6660   14.6983 C.3         1 C03       0.0846
     13 O19         7.3016    7.5304   11.0977 O.3         1 C03      -0.2340
     14 C20         6.2460    6.8553   10.3794 C.3         1 C03       0.5447
     15 F21         5.2392    7.7670   10.1928 F           1 C03      -0.1402
     16 F22         5.7060    5.7970   11.0762 F           1 C03      -0.1402
     17 F23         6.6451    6.4216    9.1353 F           1 C03      -0.1402
     18 C24         7.6737    2.6544   14.1599 C.ar        1 C03      -0.0091
     19 C27         8.0804    1.3014   14.1218 C.ar        1 C03      -0.0287
     20 C28         7.2893    0.2923   13.5522 C.ar        1 C03       0.0876
     21 C29         6.0076    0.6102   13.0642 C.ar        1 C03      -0.0391
     22 C30         5.5436    1.9279   13.1491 C.ar        1 C03      -0.0631
     23 C31         6.3509    2.9421   13.7121 C.ar        1 C03       0.0319
     24 CL1         5.6407    4.4706   13.8513 Cl          1 C03      -0.0872
     25 O36         7.7519   -0.9922   13.5510 O.3         1 C03      -0.3024
     26 C37         8.5990   -1.3946   12.4518 C.3         1 C03       0.1302
     27 C38         9.6675   -0.3488   12.0324 C.3         1 C03      -0.0222
     28 C42         7.7905   -1.9081   11.3249 C.2         1 C03       0.0683
     29 O44         7.5817   -1.1922   10.1967 O.co2       1 C03      -0.5660
     30 O45         7.3132   -3.1714   11.3698 O.co2       1 C03      -0.5660
     31 N46        13.3772    3.7473   11.0465 N.2         1 C03      -0.1679
     32 O47        14.6844    3.8164   10.9658 O.3         1 C03      -0.1876
     33 C48        15.1527    4.4333   12.0727 C.ar        1 C03       0.1433
     34 C49        14.0622    4.7660   12.8724 C.ar        1 C03       0.0134
     35 C50        16.4649    4.7525   12.4613 C.ar        1 C03       0.0032
     36 C51        16.6670    5.4387   13.6820 C.ar        1 C03       0.0851
     37 C52        15.5531    5.8158   14.4702 C.ar        1 C03      -0.0395
     38 C53        14.2416    5.4640   14.0795 C.ar        1 C03      -0.0670
     39 O57        17.9410    5.7953   14.0370 O.3         1 C03      -0.3234
     40 C58        18.4046    5.1970   15.2595 C.3         1 C03       0.0592
     41 H1          9.6344    7.5872    9.9142 H           1 C03       0.0459
     42 H2         11.6026    6.2851   10.5008 H           1 C03       0.0504
     43 H3          7.4969    5.7941   13.0459 H           1 C03       0.0444
     44 H4         12.7316    2.7138   14.3680 H           1 C03       0.0449
     45 H5         11.2539    1.7781   14.4769 H           1 C03       0.0449
     46 H6         11.5528    3.1104   15.6160 H           1 C03       0.0449
     47 H7          8.1228    4.5463   15.0727 H           1 C03       0.0764
     48 H8          9.1279    3.2445   15.5869 H           1 C03       0.0764
     49 H9          8.9709    1.0239   14.5333 H           1 C03       0.0480
     50 H10         5.4132   -0.1252   12.6692 H           1 C03       0.0487
     51 H11         4.6040    2.1441   12.8086 H           1 C03       0.0578
     52 H12         9.1558   -2.2520   12.8339 H           1 C03       0.0818
     53 H13        10.3741   -0.8100   11.3339 H           1 C03       0.0276
     54 H14        10.2239   -0.0052   12.9049 H           1 C03       0.0276
     55 H15         9.2090    0.5176   11.5545 H           1 C03       0.0276
     56 H16        17.2565    4.5027   11.8639 H           1 C03       0.0476
     57 H17        15.6935    6.3527   15.3297 H           1 C03       0.0490
     58 H18        13.4402    5.7285   14.6536 H           1 C03       0.0582
     59 H19        19.4522    5.4701   15.3932 H           1 C03       0.0578
     60 H20        18.3384    4.1063   15.2262 H           1 C03       0.0578
     61 H21        17.8430    5.5726   16.1183 H           1 C03       0.0578
@<TRIPOS>BOND
     1     1     2  ar
     2     1     6  ar
     3     2     3  ar
     4     3     4  ar
     5     3     7   1
     6     4     5  ar
     7     4     9   1
     8     5     6  ar
     9     6    13   1
    10     7     8   2
    11     7    10   1
    12     8     9   1
    13     8    11   1
    14     9    12   1
    15    10    31   2
    16    10    34   1
    17    12    18   1
    18    13    14   1
    19    14    15   1
    20    14    16   1
    21    14    17   1
    22    18    19  ar
    23    18    23  ar
    24    19    20  ar
    25    20    21  ar
    26    20    25   1
    27    21    22  ar
    28    22    23  ar
    29    23    24   1
    30    25    26   1
    31    26    27   1
    32    26    28   1
    33    28    29  ar
    34    28    30  ar
    35    31    32   1
    36    32    33   1
    37    33    34  ar
    38    33    35  ar
    39    34    38  ar
    40    35    36  ar
    41    36    37  ar
    42    36    39   1
    43    37    38  ar
    44    39    40   1
    45     1    41   1
    46     2    42   1
    47     5    43   1
    48    11    44   1
    49    11    45   1
    50    11    46   1
    51    12    47   1
    52    12    48   1
    53    19    49   1
    54    21    50   1
    55    22    51   1
    56    26    52   1
    57    27    53   1
    58    27    54   1
    59    27    55   1
    60    35    56   1
    61    37    57   1
    62    38    58   1
    63    40    59   1
    64    40    60   1
    65    40    61   1
@<TRIPOS>SUBSTRUCTURE
     1  C03      1

