@<TRIPOS>MOLECULE
2p4y_ligand_062
    61    65
SMALL
GAST_HUCK
****
This file was generated by PARSER (from files_GN.cpp)

@<TRIPOS>ATOM
      1 C1          3.7374   10.1983   13.4857 C.ar        1 C03      -0.0494
      2 C2          3.2064    9.5749   12.3374 C.ar        1 C03      -0.0824
      3 C3          3.9915    8.6267   11.6477 C.ar        1 C03      -0.0320
      4 C4          5.3120    8.3706   12.0385 C.ar        1 C03       0.0592
      5 C5          5.8421    9.0077   13.1854 C.ar        1 C03      -0.0175
      6 C6          5.0441    9.9025   13.9291 C.ar        1 C03       0.0845
      7 C10         3.7454    7.8731   10.5015 C.2         1 C03      -0.0105
      8 C11         4.9439    7.2012   10.2110 C.2         1 C03       0.0574
      9 N12         5.8858    7.5330   11.1394 N.pl3       1 C03      -0.2466
     10 C13         2.5550    7.8875    9.7264 C.2         1 C03       0.0368
     11 C14         5.1781    6.2765    9.0771 C.3         1 C03      -0.0027
     12 C18         7.2978    7.2024   11.0795 C.3         1 C03       0.0846
     13 O19         5.5563   10.5523   15.0260 O.3         1 C03      -0.2340
     14 C20         5.7208    9.7528   16.2152 C.3         1 C03       0.5447
     15 F21         6.1506   10.5896   17.2145 F           1 C03      -0.1402
     16 F22         6.6782    8.7748   16.0751 F           1 C03      -0.1402
     17 F23         4.5418    9.1792   16.6342 F           1 C03      -0.1402
     18 C24         7.6557    5.7617   11.2184 C.ar        1 C03      -0.0091
     19 C27         7.1623    5.0451   12.3339 C.ar        1 C03      -0.0287
     20 C28         7.5047    3.6922   12.5511 C.ar        1 C03       0.0876
     21 C29         8.3279    3.0370   11.6179 C.ar        1 C03      -0.0391
     22 C30         8.8693    3.7410   10.5316 C.ar        1 C03      -0.0631
     23 C31         8.5442    5.0946   10.3247 C.ar        1 C03       0.0319
     24 CL1         9.2947    5.8513    9.0006 Cl          1 C03      -0.0872
     25 O36         6.9707    3.0366   13.6329 O.3         1 C03      -0.3024
     26 C37         7.8666    2.2897   14.4914 C.3         1 C03       0.1302
     27 C38         7.3379    0.8346   14.5407 C.3         1 C03      -0.0222
     28 C42         7.9298    2.9543   15.8068 C.2         1 C03       0.0683
     29 O44         7.5307    2.3530   16.9530 O.co2       1 C03      -0.5660
     30 O45         8.5182    4.1726   15.9035 O.co2       1 C03      -0.5660
     31 N46         2.5449    7.7991    8.3824 N.2         1 C03      -0.1679
     32 O47         1.3296    7.9034    7.9171 O.3         1 C03      -0.1876
     33 C48         0.4836    8.0566    8.9536 C.ar        1 C03       0.1433
     34 C49         1.2302    8.0431   10.1338 C.ar        1 C03       0.0134
     35 C50        -0.9099    8.2169    8.9667 C.ar        1 C03       0.0032
     36 C51        -1.5657    8.3754   10.2087 C.ar        1 C03       0.0851
     37 C52        -0.8207    8.3173   11.4093 C.ar        1 C03      -0.0395
     38 C53         0.5807    8.1473   11.3821 C.ar        1 C03      -0.0670
     39 O57        -2.9278    8.5369   10.2486 O.3         1 C03      -0.3234
     40 C58        -3.3340    9.9089   10.0933 C.3         1 C03       0.0592
     41 H1          3.1709   10.8826   13.9951 H           1 C03       0.0459
     42 H2          2.2761    9.8309   12.0011 H           1 C03       0.0504
     43 H3          6.7969    8.8271   13.4888 H           1 C03       0.0444
     44 H4          4.2734    6.0758    8.5045 H           1 C03       0.0449
     45 H5          5.5395    5.3237    9.4605 H           1 C03       0.0449
     46 H6          5.9311    6.7007    8.4125 H           1 C03       0.0449
     47 H7          7.8605    7.7059   11.8615 H           1 C03       0.0764
     48 H8          7.6644    7.6293   10.1458 H           1 C03       0.0764
     49 H9          6.5571    5.5110   13.0151 H           1 C03       0.0480
     50 H10         8.5604    2.0474   11.7371 H           1 C03       0.0487
     51 H11         9.5113    3.2576    9.9009 H           1 C03       0.0578
     52 H12         8.8924    2.2451   14.1078 H           1 C03       0.0818
     53 H13         7.9778    0.2164   15.1716 H           1 C03       0.0276
     54 H14         7.3273    0.4062   13.5369 H           1 C03       0.0276
     55 H15         6.3207    0.8055   14.9351 H           1 C03       0.0276
     56 H16        -1.4352    8.2271    8.0852 H           1 C03       0.0476
     57 H17        -1.2987    8.4061   12.3106 H           1 C03       0.0490
     58 H18         1.1141    8.0964   12.2565 H           1 C03       0.0582
     59 H19        -4.4213    9.9521   10.1557 H           1 C03       0.0578
     60 H20        -3.0335   10.3049    9.1195 H           1 C03       0.0578
     61 H21        -2.9210   10.5361   10.8876 H           1 C03       0.0578
@<TRIPOS>BOND
     1     1     2  ar
     2     1     6  ar
     3     2     3  ar
     4     3     4  ar
     5     3     7   1
     6     4     5  ar
     7     4     9   1
     8     5     6  ar
     9     6    13   1
    10     7     8   2
    11     7    10   1
    12     8     9   1
    13     8    11   1
    14     9    12   1
    15    10    31   2
    16    10    34   1
    17    12    18   1
    18    13    14   1
    19    14    15   1
    20    14    16   1
    21    14    17   1
    22    18    19  ar
    23    18    23  ar
    24    19    20  ar
    25    20    21  ar
    26    20    25   1
    27    21    22  ar
    28    22    23  ar
    29    23    24   1
    30    25    26   1
    31    26    27   1
    32    26    28   1
    33    28    29  ar
    34    28    30  ar
    35    31    32   1
    36    32    33   1
    37    33    34  ar
    38    33    35  ar
    39    34    38  ar
    40    35    36  ar
    41    36    37  ar
    42    36    39   1
    43    37    38  ar
    44    39    40   1
    45     1    41   1
    46     2    42   1
    47     5    43   1
    48    11    44   1
    49    11    45   1
    50    11    46   1
    51    12    47   1
    52    12    48   1
    53    19    49   1
    54    21    50   1
    55    22    51   1
    56    26    52   1
    57    27    53   1
    58    27    54   1
    59    27    55   1
    60    35    56   1
    61    37    57   1
    62    38    58   1
    63    40    59   1
    64    40    60   1
    65    40    61   1
@<TRIPOS>SUBSTRUCTURE
     1  C03      1

