@<TRIPOS>MOLECULE
2p4y_ligand_081
    61    65
SMALL
GAST_HUCK
****
This file was generated by PARSER (from files_GN.cpp)

@<TRIPOS>ATOM
      1 C1         17.1207   10.0054    9.1438 C.ar        1 C03      -0.0494
      2 C2         15.8392    9.4280    9.1467 C.ar        1 C03      -0.0824
      3 C3         14.7065   10.2613    9.0805 C.ar        1 C03      -0.0320
      4 C4         14.8462   11.6341    8.8667 C.ar        1 C03       0.0592
      5 C5         16.1336   12.2174    8.8629 C.ar        1 C03      -0.0175
      6 C6         17.2772   11.4023    9.0103 C.ar        1 C03       0.0845
      7 C10        13.3425    9.9705    9.1495 C.2         1 C03      -0.0105
      8 C11        12.6888   11.1764    8.8264 C.2         1 C03       0.0574
      9 N12        13.6119   12.1753    8.7103 N.pl3       1 C03      -0.2466
     10 C13        12.7784    8.7006    9.4624 C.2         1 C03       0.0368
     11 C14        11.2288   11.3786    8.6457 C.3         1 C03      -0.0027
     12 C18        13.3430   13.5726    8.4202 C.3         1 C03       0.0846
     13 O19        18.4968   12.0278    9.0899 O.3         1 C03      -0.2340
     14 C20        19.3742   11.9475    7.9507 C.3         1 C03       0.5447
     15 F21        20.3465   12.9031    8.1109 F           1 C03      -0.1402
     16 F22        18.7421   12.1989    6.7536 F           1 C03      -0.1402
     17 F23        20.0067   10.7284    7.8928 F           1 C03      -0.1402
     18 C24        12.5681   14.3233    9.4586 C.ar        1 C03      -0.0091
     19 C27        11.4370   15.0683    9.0442 C.ar        1 C03      -0.0287
     20 C28        10.6666   15.8093    9.9601 C.ar        1 C03       0.0876
     21 C29        11.0351   15.8247   11.3161 C.ar        1 C03      -0.0391
     22 C30        12.1646   15.1136   11.7485 C.ar        1 C03      -0.0631
     23 C31        12.9469   14.3817   10.8311 C.ar        1 C03       0.0319
     24 CL1        14.3366   13.6346   11.4583 Cl          1 C03      -0.0872
     25 O36         9.6316   16.5975    9.5366 O.3         1 C03      -0.3024
     26 C37         8.3308   15.9712    9.4298 C.3         1 C03       0.1302
     27 C38         8.2596   15.1069    8.1450 C.3         1 C03      -0.0222
     28 C42         7.2934   17.0249    9.3962 C.2         1 C03       0.0683
     29 O44         5.9844   16.6879    9.4187 O.co2       1 C03      -0.5660
     30 O45         7.6077   18.3400    9.4315 O.co2       1 C03      -0.5660
     31 N46        11.6188    8.2408    8.9445 N.2         1 C03      -0.1679
     32 O47        11.3779    7.0115    9.3126 O.3         1 C03      -0.1876
     33 C48        12.3860    6.6110   10.1074 C.ar        1 C03       0.1433
     34 C49        13.2840    7.6651   10.2586 C.ar        1 C03       0.0134
     35 C50        12.5906    5.3601   10.7112 C.ar        1 C03       0.0032
     36 C51        13.7327    5.1805   11.5179 C.ar        1 C03       0.0851
     37 C52        14.6306    6.2526   11.7192 C.ar        1 C03      -0.0395
     38 C53        14.3939    7.5071   11.1167 C.ar        1 C03      -0.0670
     39 O57        13.9939    3.9526   12.0632 O.3         1 C03      -0.3234
     40 C58        13.5404    3.8306   13.4215 C.3         1 C03       0.0592
     41 H1         17.9362    9.4027    9.2460 H           1 C03       0.0459
     42 H2         15.7509    8.4133    9.1919 H           1 C03       0.0504
     43 H3         16.2551   13.2271    8.7795 H           1 C03       0.0444
     44 H4         10.6599   10.4571    8.7156 H           1 C03       0.0449
     45 H5         11.0372   11.8090    7.6636 H           1 C03       0.0449
     46 H6         10.8465   12.0568    9.4068 H           1 C03       0.0449
     47 H7         12.8274   13.5968    7.4555 H           1 C03       0.0764
     48 H8         14.2586   14.1444    8.2690 H           1 C03       0.0764
     49 H9         11.1781   15.1007    8.0579 H           1 C03       0.0480
     50 H10        10.4968   16.3785   11.9870 H           1 C03       0.0487
     51 H11        12.4277   15.1533   12.7367 H           1 C03       0.0578
     52 H12         8.1117   15.3400   10.2987 H           1 C03       0.0818
     53 H13         7.2554   14.7023    8.0019 H           1 C03       0.0276
     54 H14         8.9487   14.2654    8.2164 H           1 C03       0.0276
     55 H15         8.5266   15.7033    7.2696 H           1 C03       0.0276
     56 H16        11.9291    4.5954   10.5578 H           1 C03       0.0476
     57 H17        15.4431    6.1254   12.3280 H           1 C03       0.0490
     58 H18        15.0285    8.2781   11.3194 H           1 C03       0.0582
     59 H19        13.8132    2.8401   13.7857 H           1 C03       0.0578
     60 H20        12.4543    3.9318   13.4835 H           1 C03       0.0578
     61 H21        14.0130    4.5735   14.0692 H           1 C03       0.0578
@<TRIPOS>BOND
     1     1     2  ar
     2     1     6  ar
     3     2     3  ar
     4     3     4  ar
     5     3     7   1
     6     4     5  ar
     7     4     9   1
     8     5     6  ar
     9     6    13   1
    10     7     8   2
    11     7    10   1
    12     8     9   1
    13     8    11   1
    14     9    12   1
    15    10    31   2
    16    10    34   1
    17    12    18   1
    18    13    14   1
    19    14    15   1
    20    14    16   1
    21    14    17   1
    22    18    19  ar
    23    18    23  ar
    24    19    20  ar
    25    20    21  ar
    26    20    25   1
    27    21    22  ar
    28    22    23  ar
    29    23    24   1
    30    25    26   1
    31    26    27   1
    32    26    28   1
    33    28    29  ar
    34    28    30  ar
    35    31    32   1
    36    32    33   1
    37    33    34  ar
    38    33    35  ar
    39    34    38  ar
    40    35    36  ar
    41    36    37  ar
    42    36    39   1
    43    37    38  ar
    44    39    40   1
    45     1    41   1
    46     2    42   1
    47     5    43   1
    48    11    44   1
    49    11    45   1
    50    11    46   1
    51    12    47   1
    52    12    48   1
    53    19    49   1
    54    21    50   1
    55    22    51   1
    56    26    52   1
    57    27    53   1
    58    27    54   1
    59    27    55   1
    60    35    56   1
    61    37    57   1
    62    38    58   1
    63    40    59   1
    64    40    60   1
    65    40    61   1
@<TRIPOS>SUBSTRUCTURE
     1  C03      1

