@<TRIPOS>MOLECULE
2p4y_ligand_026
    61    65
SMALL
GAST_HUCK
****
This file was generated by PARSER (from files_GN.cpp)

@<TRIPOS>ATOM
      1 C1         11.8387    7.7338   10.0933 C.ar        1 C03      -0.0494
      2 C2         10.4488    7.5199   10.2813 C.ar        1 C03      -0.0824
      3 C3         10.0434    6.4585   11.0915 C.ar        1 C03      -0.0320
      4 C4         10.9632    5.5817   11.6817 C.ar        1 C03       0.0592
      5 C5         12.3342    5.7714   11.4559 C.ar        1 C03      -0.0175
      6 C6         12.7841    6.8638   10.6726 C.ar        1 C03       0.0845
      7 C10         8.7696    6.0790   11.5111 C.2         1 C03      -0.0105
      8 C11         8.9419    4.9666   12.3417 C.2         1 C03       0.0574
      9 N12        10.2678    4.6877   12.4457 N.pl3       1 C03      -0.2466
     10 C13         7.5733    6.7153   11.1475 C.2         1 C03       0.0368
     11 C14         7.8245    4.2212   12.9831 C.3         1 C03      -0.0027
     12 C18        10.8523    3.6108   13.2108 C.3         1 C03       0.0846
     13 O19        14.1314    7.1276   10.6344 O.3         1 C03      -0.2340
     14 C20        14.7964    7.0635    9.3580 C.3         1 C03       0.5447
     15 F21        16.1471    7.1328    9.5899 F           1 C03      -0.1402
     16 F22        14.4808    8.1344    8.5587 F           1 C03      -0.1402
     17 F23        14.5524    5.8912    8.6828 F           1 C03      -0.1402
     18 C24        11.9493    3.9885   14.1478 C.ar        1 C03      -0.0091
     19 C27        13.2014    3.3899   14.0113 C.ar        1 C03      -0.0287
     20 C28        14.2759    3.6861   14.8964 C.ar        1 C03       0.0876
     21 C29        14.0624    4.5830   15.9452 C.ar        1 C03      -0.0391
     22 C30        12.8052    5.2142   16.0971 C.ar        1 C03      -0.0631
     23 C31        11.7540    4.9418   15.2114 C.ar        1 C03       0.0319
     24 CL1        10.3045    5.7864   15.4470 Cl          1 C03      -0.0872
     25 O36        15.4973    3.1211   14.6667 O.3         1 C03      -0.3024
     26 C37        16.4887    3.8622   13.8960 C.3         1 C03       0.1302
     27 C38        17.4262    4.5764   14.9085 C.3         1 C03      -0.0222
     28 C42        16.0084    4.8427   12.8942 C.2         1 C03       0.0683
     29 O44        16.0201    4.5587   11.5586 O.co2       1 C03      -0.5660
     30 O45        15.6173    6.0796   13.2601 O.co2       1 C03      -0.5660
     31 N46         6.9164    7.6373   11.8812 N.2         1 C03      -0.1679
     32 O47         5.7970    7.9740   11.2887 O.3         1 C03      -0.1876
     33 C48         5.6889    7.2729   10.1295 C.ar        1 C03       0.1433
     34 C49         6.8169    6.4733   10.0215 C.ar        1 C03       0.0134
     35 C50         4.6762    7.2416    9.1617 C.ar        1 C03       0.0032
     36 C51         4.8188    6.3905    8.0345 C.ar        1 C03       0.0851
     37 C52         5.9828    5.5770    7.9340 C.ar        1 C03      -0.0395
     38 C53         6.9751    5.6066    8.9101 C.ar        1 C03      -0.0670
     39 O57         3.8425    6.2410    7.0852 O.3         1 C03      -0.3234
     40 C58         3.4627    7.4450    6.4003 C.3         1 C03       0.0592
     41 H1         12.1368    8.5486    9.5576 H           1 C03       0.0459
     42 H2          9.7703    8.1599    9.8679 H           1 C03       0.0504
     43 H3         13.0210    5.1565   11.8935 H           1 C03       0.0444
     44 H4          6.8484    4.6331   12.7269 H           1 C03       0.0449
     45 H5          7.9285    4.2585   14.0673 H           1 C03       0.0449
     46 H6          7.8461    3.1814   12.6591 H           1 C03       0.0449
     47 H7         11.2081    2.8677   12.4911 H           1 C03       0.0764
     48 H8         10.1021    3.1169   13.8300 H           1 C03       0.0764
     49 H9         13.3809    2.7095   13.2618 H           1 C03       0.0480
     50 H10        14.8209    4.8199   16.5890 H           1 C03       0.0487
     51 H11        12.6784    5.8825   16.8649 H           1 C03       0.0578
     52 H12        17.0949    3.1154   13.3701 H           1 C03       0.0818
     53 H13        18.2287    5.1071   14.3855 H           1 C03       0.0276
     54 H14        17.8820    3.8567   15.5895 H           1 C03       0.0276
     55 H15        16.8571    5.2944   15.5005 H           1 C03       0.0276
     56 H16         3.8427    7.8218    9.2776 H           1 C03       0.0476
     57 H17         6.0802    4.9431    7.1310 H           1 C03       0.0490
     58 H18         7.8059    5.0096    8.8516 H           1 C03       0.0582
     59 H19         2.8222    7.1712    5.5584 H           1 C03       0.0578
     60 H20         4.3279    7.9831    6.0045 H           1 C03       0.0578
     61 H21         2.8902    8.0982    7.0569 H           1 C03       0.0578
@<TRIPOS>BOND
     1     1     2  ar
     2     1     6  ar
     3     2     3  ar
     4     3     4  ar
     5     3     7   1
     6     4     5  ar
     7     4     9   1
     8     5     6  ar
     9     6    13   1
    10     7     8   2
    11     7    10   1
    12     8     9   1
    13     8    11   1
    14     9    12   1
    15    10    31   2
    16    10    34   1
    17    12    18   1
    18    13    14   1
    19    14    15   1
    20    14    16   1
    21    14    17   1
    22    18    19  ar
    23    18    23  ar
    24    19    20  ar
    25    20    21  ar
    26    20    25   1
    27    21    22  ar
    28    22    23  ar
    29    23    24   1
    30    25    26   1
    31    26    27   1
    32    26    28   1
    33    28    29  ar
    34    28    30  ar
    35    31    32   1
    36    32    33   1
    37    33    34  ar
    38    33    35  ar
    39    34    38  ar
    40    35    36  ar
    41    36    37  ar
    42    36    39   1
    43    37    38  ar
    44    39    40   1
    45     1    41   1
    46     2    42   1
    47     5    43   1
    48    11    44   1
    49    11    45   1
    50    11    46   1
    51    12    47   1
    52    12    48   1
    53    19    49   1
    54    21    50   1
    55    22    51   1
    56    26    52   1
    57    27    53   1
    58    27    54   1
    59    27    55   1
    60    35    56   1
    61    37    57   1
    62    38    58   1
    63    40    59   1
    64    40    60   1
    65    40    61   1
@<TRIPOS>SUBSTRUCTURE
     1  C03      1

