@<TRIPOS>MOLECULE
2p4y_ligand_078
    61    65
SMALL
GAST_HUCK
****
This file was generated by PARSER (from files_GN.cpp)

@<TRIPOS>ATOM
      1 C1         11.5580   17.8334    6.2293 C.ar        1 C03      -0.0494
      2 C2         10.5369   17.0653    6.8155 C.ar        1 C03      -0.0824
      3 C3         10.8646   16.1737    7.8562 C.ar        1 C03      -0.0320
      4 C4         12.1774   16.0526    8.3216 C.ar        1 C03       0.0592
      5 C5         13.2030   16.8092    7.7139 C.ar        1 C03      -0.0175
      6 C6         12.8854   17.7280    6.6914 C.ar        1 C03       0.0845
      7 C10        10.0750   15.3317    8.6344 C.2         1 C03      -0.0105
      8 C11        10.9345   14.7239    9.5653 C.2         1 C03       0.0574
      9 N12        12.2005   15.1943    9.3746 N.pl3       1 C03      -0.2466
     10 C13         8.6878   15.1340    8.5088 C.2         1 C03       0.0368
     11 C14        10.5404   13.6912   10.5567 C.3         1 C03      -0.0027
     12 C18        13.3744   14.8190   10.1351 C.3         1 C03       0.0846
     13 O19        13.8728   18.5032    6.1390 O.3         1 C03      -0.2340
     14 C20        14.0002   19.8179    6.7198 C.3         1 C03       0.5447
     15 F21        14.9983   20.4688    6.0397 F           1 C03      -0.1402
     16 F22        14.3670   19.7794    8.0491 F           1 C03      -0.1402
     17 F23        12.8562   20.5723    6.5871 F           1 C03      -0.1402
     18 C24        14.2267   15.9349   10.6515 C.ar        1 C03      -0.0091
     19 C27        15.6303   15.7454   10.7072 C.ar        1 C03      -0.0287
     20 C28        16.4906   16.7265   11.2331 C.ar        1 C03       0.0876
     21 C29        15.9515   17.9606   11.6419 C.ar        1 C03      -0.0391
     22 C30        14.5616   18.1659   11.6103 C.ar        1 C03      -0.0631
     23 C31        13.6921   17.1590   11.1452 C.ar        1 C03       0.0319
     24 CL1        12.0326   17.4954   11.2140 Cl          1 C03      -0.0872
     25 O36        17.8273   16.4340   11.3530 O.3         1 C03      -0.3024
     26 C37        18.3900   16.3146   12.6840 C.3         1 C03       0.1302
     27 C38        17.3867   16.0142   13.8410 C.3         1 C03      -0.0222
     28 C42        19.2809   17.4716   12.9471 C.2         1 C03       0.0683
     29 O44        20.0046   18.0083   11.9256 O.co2       1 C03      -0.5660
     30 O45        19.3218   18.1074   14.1531 O.co2       1 C03      -0.5660
     31 N46         7.7973   15.3312    9.4988 N.2         1 C03      -0.1679
     32 O47         6.5854   15.0424    9.0933 O.3         1 C03      -0.1876
     33 C48         6.6550   14.6322    7.8102 C.ar        1 C03       0.1433
     34 C49         7.9813   14.6815    7.4029 C.ar        1 C03       0.0134
     35 C50         5.6424   14.1927    6.9440 C.ar        1 C03       0.0032
     36 C51         5.9923   13.7990    5.6312 C.ar        1 C03       0.0851
     37 C52         7.3506   13.8213    5.2261 C.ar        1 C03      -0.0395
     38 C53         8.3567   14.2601    6.1137 C.ar        1 C03      -0.0670
     39 O57         5.0416   13.3254    4.7711 O.3         1 C03      -0.3234
     40 C58         4.0200   14.2943    4.4704 C.3         1 C03       0.0592
     41 H1         11.3278   18.4877    5.4779 H           1 C03       0.0459
     42 H2          9.5689   17.1673    6.4970 H           1 C03       0.0504
     43 H3         14.1711   16.7176    8.0266 H           1 C03       0.0444
     44 H4          9.5001   13.3896   10.4549 H           1 C03       0.0449
     45 H5         10.6911   14.0756   11.5676 H           1 C03       0.0449
     46 H6         11.1580   12.8050   10.4133 H           1 C03       0.0449
     47 H7         13.9511   14.1488    9.4926 H           1 C03       0.0764
     48 H8         13.0971   14.2363   11.0130 H           1 C03       0.0764
     49 H9         16.0459   14.8610   10.4032 H           1 C03       0.0480
     50 H10        16.5621   18.7036   11.9948 H           1 C03       0.0487
     51 H11        14.1869   19.0594   11.9430 H           1 C03       0.0578
     52 H12        19.0594   15.4501   12.6433 H           1 C03       0.0818
     53 H13        17.9242   15.8151   14.7697 H           1 C03       0.0276
     54 H14        16.7910   15.1418   13.5830 H           1 C03       0.0276
     55 H15        16.7203   16.8644   14.0026 H           1 C03       0.0276
     56 H16         4.6716   14.1526    7.2637 H           1 C03       0.0476
     57 H17         7.6041   13.5116    4.2849 H           1 C03       0.0490
     58 H18         9.3347   14.2610    5.8189 H           1 C03       0.0582
     59 H19         3.3229   13.8404    3.7663 H           1 C03       0.0578
     60 H20         4.4403   15.1901    4.0044 H           1 C03       0.0578
     61 H21         3.4633   14.5771    5.3690 H           1 C03       0.0578
@<TRIPOS>BOND
     1     1     2  ar
     2     1     6  ar
     3     2     3  ar
     4     3     4  ar
     5     3     7   1
     6     4     5  ar
     7     4     9   1
     8     5     6  ar
     9     6    13   1
    10     7     8   2
    11     7    10   1
    12     8     9   1
    13     8    11   1
    14     9    12   1
    15    10    31   2
    16    10    34   1
    17    12    18   1
    18    13    14   1
    19    14    15   1
    20    14    16   1
    21    14    17   1
    22    18    19  ar
    23    18    23  ar
    24    19    20  ar
    25    20    21  ar
    26    20    25   1
    27    21    22  ar
    28    22    23  ar
    29    23    24   1
    30    25    26   1
    31    26    27   1
    32    26    28   1
    33    28    29  ar
    34    28    30  ar
    35    31    32   1
    36    32    33   1
    37    33    34  ar
    38    33    35  ar
    39    34    38  ar
    40    35    36  ar
    41    36    37  ar
    42    36    39   1
    43    37    38  ar
    44    39    40   1
    45     1    41   1
    46     2    42   1
    47     5    43   1
    48    11    44   1
    49    11    45   1
    50    11    46   1
    51    12    47   1
    52    12    48   1
    53    19    49   1
    54    21    50   1
    55    22    51   1
    56    26    52   1
    57    27    53   1
    58    27    54   1
    59    27    55   1
    60    35    56   1
    61    37    57   1
    62    38    58   1
    63    40    59   1
    64    40    60   1
    65    40    61   1
@<TRIPOS>SUBSTRUCTURE
     1  C03      1

