@<TRIPOS>MOLECULE
2p4y_ligand_090
    61    65
SMALL
GAST_HUCK
****
This file was generated by PARSER (from files_GN.cpp)

@<TRIPOS>ATOM
      1 C1          9.4455    5.0107   14.9564 C.ar        1 C03      -0.0494
      2 C2          8.6112    5.4992   13.9317 C.ar        1 C03      -0.0824
      3 C3          9.2015    6.0342   12.7701 C.ar        1 C03      -0.0320
      4 C4         10.5900    6.0636   12.6192 C.ar        1 C03       0.0592
      5 C5         11.4261    5.5661   13.6441 C.ar        1 C03      -0.0175
      6 C6         10.8546    5.0246   14.8236 C.ar        1 C03       0.0845
      7 C10         8.6307    6.5556   11.6120 C.2         1 C03      -0.0105
      8 C11         9.7110    6.9322   10.8051 C.2         1 C03       0.0574
      9 N12        10.8832    6.5957   11.4079 N.pl3       1 C03      -0.2466
     10 C13         7.2695    6.6687   11.2585 C.2         1 C03       0.0368
     11 C14         9.5961    7.6107    9.4968 C.3         1 C03      -0.0027
     12 C18        12.2046    6.8187   10.8567 C.3         1 C03       0.0846
     13 O19        11.5344    4.4685   15.8793 O.3         1 C03      -0.2340
     14 C20        12.9702    4.4568   15.9978 C.3         1 C03       0.5447
     15 F21        13.2797    3.8475   17.1883 F           1 C03      -0.1402
     16 F22        13.4944    5.7305   16.0419 F           1 C03      -0.1402
     17 F23        13.5572    3.7296   14.9874 F           1 C03      -0.1402
     18 C24        13.1022    5.6425   10.6890 C.ar        1 C03      -0.0091
     19 C27        14.4403    5.7526   11.1527 C.ar        1 C03      -0.0287
     20 C28        15.3780    4.7212   10.9525 C.ar        1 C03       0.0876
     21 C29        14.9925    3.5724   10.2444 C.ar        1 C03      -0.0391
     22 C30        13.6778    3.4485    9.7629 C.ar        1 C03      -0.0631
     23 C31        12.7320    4.4726    9.9672 C.ar        1 C03       0.0319
     24 CL1        11.2150    4.2703    9.2270 Cl          1 C03      -0.0872
     25 O36        16.7008    4.8859   11.2728 O.3         1 C03      -0.3024
     26 C37        17.0904    5.0040   12.6616 C.3         1 C03       0.1302
     27 C38        17.0040    3.6538   13.4174 C.3         1 C03      -0.0222
     28 C42        16.3774    6.1133   13.3355 C.2         1 C03       0.0683
     29 O44        16.4953    7.3579   12.8189 O.co2       1 C03      -0.5660
     30 O45        15.3058    5.8720   14.1295 O.co2       1 C03      -0.5660
     31 N46         6.7845    6.2402   10.0725 N.2         1 C03      -0.1679
     32 O47         5.5526    6.6416    9.9053 O.3         1 C03      -0.1876
     33 C48         5.1885    7.3590   10.9892 C.ar        1 C03       0.1433
     34 C49         6.2510    7.3769   11.8878 C.ar        1 C03       0.0134
     35 C50         3.9921    8.0408   11.2512 C.ar        1 C03       0.0032
     36 C51         3.8533    8.7237   12.4835 C.ar        1 C03       0.0851
     37 C52         4.9358    8.7442   13.3962 C.ar        1 C03      -0.0395
     38 C53         6.1439    8.0796   13.1024 C.ar        1 C03      -0.0670
     39 O57         2.7092    9.4140   12.7880 O.3         1 C03      -0.3234
     40 C58         1.5372    8.5911   12.9298 C.3         1 C03       0.0592
     41 H1          9.0171    4.6237   15.7997 H           1 C03       0.0459
     42 H2          7.5918    5.4526   14.0338 H           1 C03       0.0504
     43 H3         12.4360    5.5943   13.5170 H           1 C03       0.0444
     44 H4          8.5774    7.9242    9.2685 H           1 C03       0.0449
     45 H5          9.9397    6.9200    8.7244 H           1 C03       0.0449
     46 H6         10.2184    8.5083    9.4871 H           1 C03       0.0449
     47 H7         12.6729    7.5613   11.4991 H           1 C03       0.0764
     48 H8         12.1668    7.2795    9.8693 H           1 C03       0.0764
     49 H9         14.7585    6.6146   11.6089 H           1 C03       0.0480
     50 H10        15.6809    2.8395   10.0422 H           1 C03       0.0487
     51 H11        13.4358    2.6148    9.2190 H           1 C03       0.0578
     52 H12        18.1527    5.2724   12.6512 H           1 C03       0.0818
     53 H13        17.3790    3.7503   14.4386 H           1 C03       0.0276
     54 H14        17.6054    2.9087   12.8996 H           1 C03       0.0276
     55 H15        15.9741    3.3038   13.4579 H           1 C03       0.0276
     56 H16         3.2379    8.0346   10.5625 H           1 C03       0.0476
     57 H17         4.8425    9.2515   14.2788 H           1 C03       0.0490
     58 H18         6.9208    8.1041   13.7649 H           1 C03       0.0582
     59 H19         0.7160    9.2266   13.2613 H           1 C03       0.0578
     60 H20         1.6833    7.8037   13.6740 H           1 C03       0.0578
     61 H21         1.2520    8.1408   11.9760 H           1 C03       0.0578
@<TRIPOS>BOND
     1     1     2  ar
     2     1     6  ar
     3     2     3  ar
     4     3     4  ar
     5     3     7   1
     6     4     5  ar
     7     4     9   1
     8     5     6  ar
     9     6    13   1
    10     7     8   2
    11     7    10   1
    12     8     9   1
    13     8    11   1
    14     9    12   1
    15    10    31   2
    16    10    34   1
    17    12    18   1
    18    13    14   1
    19    14    15   1
    20    14    16   1
    21    14    17   1
    22    18    19  ar
    23    18    23  ar
    24    19    20  ar
    25    20    21  ar
    26    20    25   1
    27    21    22  ar
    28    22    23  ar
    29    23    24   1
    30    25    26   1
    31    26    27   1
    32    26    28   1
    33    28    29  ar
    34    28    30  ar
    35    31    32   1
    36    32    33   1
    37    33    34  ar
    38    33    35  ar
    39    34    38  ar
    40    35    36  ar
    41    36    37  ar
    42    36    39   1
    43    37    38  ar
    44    39    40   1
    45     1    41   1
    46     2    42   1
    47     5    43   1
    48    11    44   1
    49    11    45   1
    50    11    46   1
    51    12    47   1
    52    12    48   1
    53    19    49   1
    54    21    50   1
    55    22    51   1
    56    26    52   1
    57    27    53   1
    58    27    54   1
    59    27    55   1
    60    35    56   1
    61    37    57   1
    62    38    58   1
    63    40    59   1
    64    40    60   1
    65    40    61   1
@<TRIPOS>SUBSTRUCTURE
     1  C03      1

