@<TRIPOS>MOLECULE
2p4y_ligand_003
    61    65
SMALL
GAST_HUCK
****
This file was generated by PARSER (from files_GN.cpp)

@<TRIPOS>ATOM
      1 C1         11.4979    6.2218    9.2855 C.ar        1 C03      -0.0494
      2 C2         10.1305    6.2698    9.6230 C.ar        1 C03      -0.0824
      3 C3          9.7481    6.1627   10.9779 C.ar        1 C03      -0.0320
      4 C4         10.6989    5.9941   11.9849 C.ar        1 C03       0.0592
      5 C5         12.0638    5.9439   11.6288 C.ar        1 C03      -0.0175
      6 C6         12.4732    6.0738   10.2882 C.ar        1 C03       0.0845
      7 C10         8.5025    6.2420   11.5884 C.2         1 C03      -0.0105
      8 C11         8.7327    6.0783   12.9647 C.2         1 C03       0.0574
      9 N12        10.0713    5.9269   13.1902 N.pl3       1 C03      -0.2466
     10 C13         7.2822    6.4590   10.9021 C.2         1 C03       0.0368
     11 C14         7.6790    6.0771   14.0098 C.3         1 C03      -0.0027
     12 C18        10.7377    5.8241   14.4765 C.3         1 C03       0.0846
     13 O19        13.7962    5.9472    9.9548 O.3         1 C03      -0.2340
     14 C20        14.5993    7.1435    9.9693 C.3         1 C03       0.5447
     15 F21        15.8663    6.7902    9.5785 F           1 C03      -0.1402
     16 F22        14.7061    7.7042   11.2203 F           1 C03      -0.1402
     17 F23        14.1443    8.0904    9.0836 F           1 C03      -0.1402
     18 C24        11.6778    4.6651   14.6210 C.ar        1 C03      -0.0091
     19 C27        13.0677    4.8771   14.4343 C.ar        1 C03      -0.0287
     20 C28        13.9890    3.8130   14.4264 C.ar        1 C03       0.0876
     21 C29        13.5354    2.5113   14.6929 C.ar        1 C03      -0.0391
     22 C30        12.1788    2.2829   14.9711 C.ar        1 C03      -0.0631
     23 C31        11.2498    3.3427   14.9305 C.ar        1 C03       0.0319
     24 CL1         9.6385    2.9401   15.2747 Cl          1 C03      -0.0872
     25 O36        15.2807    3.9926   14.0110 O.3         1 C03      -0.3024
     26 C37        16.2463    4.4708   14.9721 C.3         1 C03       0.1302
     27 C38        16.6551    5.9282   14.6415 C.3         1 C03      -0.0222
     28 C42        17.4103    3.5700   14.8675 C.2         1 C03       0.0683
     29 O44        17.8125    2.8304   15.9257 O.co2       1 C03      -0.5660
     30 O45        18.0024    3.3597   13.6701 O.co2       1 C03      -0.5660
     31 N46         6.9924    5.8958    9.7114 N.2         1 C03      -0.1679
     32 O47         5.7997    6.2502    9.3041 O.3         1 C03      -0.1876
     33 C48         5.2627    7.0750   10.2275 C.ar        1 C03       0.1433
     34 C49         6.1882    7.2459   11.2536 C.ar        1 C03       0.0134
     35 C50         4.0091    7.7087   10.2524 C.ar        1 C03       0.0032
     36 C51         3.6985    8.5599   11.3384 C.ar        1 C03       0.0851
     37 C52         4.6395    8.7517   12.3755 C.ar        1 C03      -0.0395
     38 C53         5.8933    8.1073   12.3304 C.ar        1 C03      -0.0670
     39 O57         2.4832    9.1816   11.4062 O.3         1 C03      -0.3234
     40 C58         2.4480   10.4277   10.6896 C.3         1 C03       0.0592
     41 H1         11.7883    6.2933    8.3108 H           1 C03       0.0459
     42 H2          9.4296    6.3851    8.8917 H           1 C03       0.0504
     43 H3         12.7817    5.8323   12.3302 H           1 C03       0.0444
     44 H4          6.6765    6.0480   13.5900 H           1 C03       0.0449
     45 H5          7.7779    6.9659   14.6340 H           1 C03       0.0449
     46 H6          7.7682    5.1999   14.6390 H           1 C03       0.0449
     47 H7         10.0241    5.7686   15.2997 H           1 C03       0.0764
     48 H8         11.2642    6.7702   14.6250 H           1 C03       0.0764
     49 H9         13.4170    5.8075   14.2138 H           1 C03       0.0480
     50 H10        14.1919    1.7294   14.6747 H           1 C03       0.0487
     51 H11        11.8705    1.3272   15.1730 H           1 C03       0.0578
     52 H12        15.8705    4.4362   16.0031 H           1 C03       0.0818
     53 H13        17.4714    6.2513   15.2898 H           1 C03       0.0276
     54 H14        15.8126    6.6035   14.7952 H           1 C03       0.0276
     55 H15        16.9805    6.0105   13.6018 H           1 C03       0.0276
     56 H16         3.3401    7.5563    9.4947 H           1 C03       0.0476
     57 H17         4.4188    9.3695   13.1620 H           1 C03       0.0490
     58 H18         6.5710    8.2683   13.0746 H           1 C03       0.0582
     59 H19         1.4657   10.8777   10.8360 H           1 C03       0.0578
     60 H20         2.5946   10.2720    9.6177 H           1 C03       0.0578
     61 H21         3.2014   11.1265   11.0627 H           1 C03       0.0578
@<TRIPOS>BOND
     1     1     2  ar
     2     1     6  ar
     3     2     3  ar
     4     3     4  ar
     5     3     7   1
     6     4     5  ar
     7     4     9   1
     8     5     6  ar
     9     6    13   1
    10     7     8   2
    11     7    10   1
    12     8     9   1
    13     8    11   1
    14     9    12   1
    15    10    31   2
    16    10    34   1
    17    12    18   1
    18    13    14   1
    19    14    15   1
    20    14    16   1
    21    14    17   1
    22    18    19  ar
    23    18    23  ar
    24    19    20  ar
    25    20    21  ar
    26    20    25   1
    27    21    22  ar
    28    22    23  ar
    29    23    24   1
    30    25    26   1
    31    26    27   1
    32    26    28   1
    33    28    29  ar
    34    28    30  ar
    35    31    32   1
    36    32    33   1
    37    33    34  ar
    38    33    35  ar
    39    34    38  ar
    40    35    36  ar
    41    36    37  ar
    42    36    39   1
    43    37    38  ar
    44    39    40   1
    45     1    41   1
    46     2    42   1
    47     5    43   1
    48    11    44   1
    49    11    45   1
    50    11    46   1
    51    12    47   1
    52    12    48   1
    53    19    49   1
    54    21    50   1
    55    22    51   1
    56    26    52   1
    57    27    53   1
    58    27    54   1
    59    27    55   1
    60    35    56   1
    61    37    57   1
    62    38    58   1
    63    40    59   1
    64    40    60   1
    65    40    61   1
@<TRIPOS>SUBSTRUCTURE
     1  C03      1

