@<TRIPOS>MOLECULE
2p4y_ligand_055
    61    65
SMALL
GAST_HUCK
****
This file was generated by PARSER (from files_GN.cpp)

@<TRIPOS>ATOM
      1 C1          1.5247   10.1262   12.5049 C.ar        1 C03      -0.0494
      2 C2          2.7533    9.4385   12.4405 C.ar        1 C03      -0.0824
      3 C3          3.0668    8.7157   11.2768 C.ar        1 C03      -0.0320
      4 C4          2.1729    8.6360   10.2052 C.ar        1 C03       0.0592
      5 C5          0.9333    9.3155   10.2798 C.ar        1 C03      -0.0175
      6 C6          0.6086   10.0590   11.4339 C.ar        1 C03       0.0845
      7 C10         4.1873    7.9565   10.9353 C.2         1 C03      -0.0105
      8 C11         3.9639    7.4861    9.6328 C.2         1 C03       0.0574
      9 N12         2.7200    7.8708    9.2276 N.pl3       1 C03      -0.2466
     10 C13         5.3028    7.7325   11.7700 C.2         1 C03       0.0368
     11 C14         4.9494    6.7555    8.8020 C.3         1 C03      -0.0027
     12 C18         2.0740    7.4758    7.9958 C.3         1 C03       0.0846
     13 O19        -0.5567   10.7762   11.4857 O.3         1 C03      -0.2340
     14 C20        -1.6939   10.0739   12.0207 C.3         1 C03       0.5447
     15 F21        -2.7473   10.9536   12.0298 F           1 C03      -0.1402
     16 F22        -1.5000    9.6550   13.3168 F           1 C03      -0.1402
     17 F23        -2.0602    9.0011   11.2421 F           1 C03      -0.1402
     18 C24         2.4816    8.2846    6.8042 C.ar        1 C03      -0.0091
     19 C27         1.9530    9.5945    6.6801 C.ar        1 C03      -0.0287
     20 C28         2.2144   10.3933    5.5486 C.ar        1 C03       0.0876
     21 C29         3.0052    9.8750    4.5072 C.ar        1 C03      -0.0391
     22 C30         3.5583    8.5885    4.6170 C.ar        1 C03      -0.0631
     23 C31         3.3047    7.7909    5.7529 C.ar        1 C03       0.0319
     24 CL1         4.0215    6.2535    5.7563 Cl          1 C03      -0.0872
     25 O36         1.5864   11.5988    5.4010 O.3         1 C03      -0.3024
     26 C37         2.2313   12.7623    5.9684 C.3         1 C03       0.1302
     27 C38         1.1004   13.7388    6.3751 C.3         1 C03      -0.0222
     28 C42         3.1790   13.3646    5.0053 C.2         1 C03       0.0683
     29 O44         4.3707   12.7707    4.7744 O.co2       1 C03      -0.5660
     30 O45         2.7797   14.3078    4.1208 O.co2       1 C03      -0.5660
     31 N46         5.8624    8.6681   12.5649 N.2         1 C03      -0.1679
     32 O47         6.9026    8.1789   13.1896 O.3         1 C03      -0.1876
     33 C48         7.0509    6.8829   12.8377 C.ar        1 C03       0.1433
     34 C49         6.0385    6.5611   11.9415 C.ar        1 C03       0.0134
     35 C50         8.0216    5.9448   13.2245 C.ar        1 C03       0.0032
     36 C51         7.9487    4.6381   12.6911 C.ar        1 C03       0.0851
     37 C52         6.8812    4.2879   11.8283 C.ar        1 C03      -0.0395
     38 C53         5.9270    5.2506   11.4399 C.ar        1 C03      -0.0670
     39 O57         8.8987    3.7108   13.0221 O.3         1 C03      -0.3234
     40 C58        10.0458    3.7693   12.1556 C.3         1 C03       0.0592
     41 H1          1.2973   10.6719   13.3358 H           1 C03       0.0459
     42 H2          3.4056    9.4852   13.2278 H           1 C03       0.0504
     43 H3          0.2788    9.2835    9.4990 H           1 C03       0.0444
     44 H4          5.9273    6.6902    9.2829 H           1 C03       0.0449
     45 H5          5.0838    7.2878    7.8623 H           1 C03       0.0449
     46 H6          4.5882    5.7442    8.5975 H           1 C03       0.0449
     47 H7          0.9858    7.5522    8.0791 H           1 C03       0.0764
     48 H8          2.2561    6.4102    7.8508 H           1 C03       0.0764
     49 H9          1.3412    9.9706    7.4035 H           1 C03       0.0480
     50 H10         3.1624   10.4243    3.6602 H           1 C03       0.0487
     51 H11         4.1292    8.2275    3.8452 H           1 C03       0.0578
     52 H12         2.7789   12.5184    6.8880 H           1 C03       0.0818
     53 H13         1.5153   14.6664    6.7772 H           1 C03       0.0276
     54 H14         0.4744   13.2788    7.1428 H           1 C03       0.0276
     55 H15         0.4681   13.9771    5.5145 H           1 C03       0.0276
     56 H16         8.7750    6.2120   13.8599 H           1 C03       0.0476
     57 H17         6.8123    3.3311   11.4608 H           1 C03       0.0490
     58 H18         5.1665    4.9962   10.8100 H           1 C03       0.0582
     59 H19        10.7538    3.0038   12.4712 H           1 C03       0.0578
     60 H20        10.5462    4.7393   12.2185 H           1 C03       0.0578
     61 H21         9.7720    3.5697   11.1165 H           1 C03       0.0578
@<TRIPOS>BOND
     1     1     2  ar
     2     1     6  ar
     3     2     3  ar
     4     3     4  ar
     5     3     7   1
     6     4     5  ar
     7     4     9   1
     8     5     6  ar
     9     6    13   1
    10     7     8   2
    11     7    10   1
    12     8     9   1
    13     8    11   1
    14     9    12   1
    15    10    31   2
    16    10    34   1
    17    12    18   1
    18    13    14   1
    19    14    15   1
    20    14    16   1
    21    14    17   1
    22    18    19  ar
    23    18    23  ar
    24    19    20  ar
    25    20    21  ar
    26    20    25   1
    27    21    22  ar
    28    22    23  ar
    29    23    24   1
    30    25    26   1
    31    26    27   1
    32    26    28   1
    33    28    29  ar
    34    28    30  ar
    35    31    32   1
    36    32    33   1
    37    33    34  ar
    38    33    35  ar
    39    34    38  ar
    40    35    36  ar
    41    36    37  ar
    42    36    39   1
    43    37    38  ar
    44    39    40   1
    45     1    41   1
    46     2    42   1
    47     5    43   1
    48    11    44   1
    49    11    45   1
    50    11    46   1
    51    12    47   1
    52    12    48   1
    53    19    49   1
    54    21    50   1
    55    22    51   1
    56    26    52   1
    57    27    53   1
    58    27    54   1
    59    27    55   1
    60    35    56   1
    61    37    57   1
    62    38    58   1
    63    40    59   1
    64    40    60   1
    65    40    61   1
@<TRIPOS>SUBSTRUCTURE
     1  C03      1

