@<TRIPOS>MOLECULE
2p4y_ligand_036
    61    65
SMALL
GAST_HUCK
****
This file was generated by PARSER (from files_GN.cpp)

@<TRIPOS>ATOM
      1 C1         18.1930   15.6163   12.6836 C.ar        1 C03      -0.0494
      2 C2         17.5685   16.0095   13.8827 C.ar        1 C03      -0.0824
      3 C3         16.2627   16.5298   13.8287 C.ar        1 C03      -0.0320
      4 C4         15.5786   16.6547   12.6167 C.ar        1 C03       0.0592
      5 C5         16.2052   16.2551   11.4130 C.ar        1 C03      -0.0175
      6 C6         17.5132   15.7181   11.4514 C.ar        1 C03       0.0845
      7 C10        15.4203   16.9877   14.8342 C.2         1 C03      -0.0105
      8 C11        14.2326   17.3926   14.2111 C.2         1 C03       0.0574
      9 N12        14.3556   17.1933   12.8670 N.pl3       1 C03      -0.2466
     10 C13        15.7238   17.0347   16.2067 C.2         1 C03       0.0368
     11 C14        13.0454   17.9562   14.8974 C.3         1 C03      -0.0027
     12 C18        13.3692   17.4950   11.8551 C.3         1 C03       0.0846
     13 O19        18.1975   15.4329   10.3028 O.3         1 C03      -0.2340
     14 C20        18.1826   14.0725    9.8357 C.3         1 C03       0.5447
     15 F21        19.1350   13.9993    8.8519 F           1 C03      -0.1402
     16 F22        16.9720   13.7514    9.2739 F           1 C03      -0.1402
     17 F23        18.5089   13.1355   10.7868 F           1 C03      -0.1402
     18 C24        12.5854   16.3391   11.3167 C.ar        1 C03      -0.0091
     19 C27        12.8527   15.0125   11.7414 C.ar        1 C03      -0.0287
     20 C28        12.1911   13.9113   11.1708 C.ar        1 C03       0.0876
     21 C29        11.1649   14.1314   10.2357 C.ar        1 C03      -0.0391
     22 C30        10.8401   15.4392    9.8434 C.ar        1 C03      -0.0631
     23 C31        11.5415   16.5397   10.3717 C.ar        1 C03       0.0319
     24 CL1        11.0769   18.0822    9.8268 Cl          1 C03      -0.0872
     25 O36        12.5409   12.6387   11.5471 O.3         1 C03      -0.3024
     26 C37        13.7194   12.0613   10.9298 C.3         1 C03       0.1302
     27 C38        15.0143   12.8844   11.1683 C.3         1 C03      -0.0222
     28 C42        13.4747   11.7068    9.5125 C.2         1 C03       0.0683
     29 O44        12.3282   11.0748    9.1748 O.co2       1 C03      -0.5660
     30 O45        14.3599   11.9927    8.5325 O.co2       1 C03      -0.5660
     31 N46        15.0805   16.3356   17.1619 N.2         1 C03      -0.1679
     32 O47        15.5744   16.6147   18.3433 O.3         1 C03      -0.1876
     33 C48        16.5615   17.5263   18.1952 C.ar        1 C03       0.1433
     34 C49        16.6823   17.8155   16.8408 C.ar        1 C03       0.0134
     35 C50        17.3710   18.1643   19.1515 C.ar        1 C03       0.0032
     36 C51        18.3003   19.1392   18.7174 C.ar        1 C03       0.0851
     37 C52        18.4286   19.4215   17.3354 C.ar        1 C03      -0.0395
     38 C53        17.6168   18.7630   16.3862 C.ar        1 C03      -0.0670
     39 O57        19.0942   19.7946   19.6241 O.3         1 C03      -0.3234
     40 C58        18.6485   21.1341   19.8944 C.3         1 C03       0.0592
     41 H1         19.1519   15.2676   12.7043 H           1 C03       0.0459
     42 H2         18.0653   15.9312   14.7705 H           1 C03       0.0504
     43 H3         15.7282   16.3646   10.5150 H           1 C03       0.0444
     44 H4         13.1650   17.9731   15.9802 H           1 C03       0.0449
     45 H5         12.1665   17.3549   14.6620 H           1 C03       0.0449
     46 H6         12.8759   18.9800   14.5613 H           1 C03       0.0449
     47 H7         13.8967   17.9812   11.0288 H           1 C03       0.0764
     48 H8         12.6474   18.2266   12.2244 H           1 C03       0.0764
     49 H9         13.5594   14.8266   12.4547 H           1 C03       0.0480
     50 H10        10.6567   13.3418    9.8352 H           1 C03       0.0487
     51 H11        10.0935   15.5810    9.1579 H           1 C03       0.0578
     52 H12        13.8848   11.1116   11.4395 H           1 C03       0.0818
     53 H13        15.8826   12.3452   10.7840 H           1 C03       0.0276
     54 H14        15.1560   13.0507   12.2391 H           1 C03       0.0276
     55 H15        14.9587   13.8487   10.6632 H           1 C03       0.0276
     56 H16        17.2692   17.9418   20.1442 H           1 C03       0.0476
     57 H17        19.1052   20.1204   17.0206 H           1 C03       0.0490
     58 H18        17.6968   18.9833   15.3917 H           1 C03       0.0582
     59 H19        19.3425   21.5840   20.6035 H           1 C03       0.0578
     60 H20        17.6529   21.1378   20.3444 H           1 C03       0.0578
     61 H21        18.6423   21.7470   18.9895 H           1 C03       0.0578
@<TRIPOS>BOND
     1     1     2  ar
     2     1     6  ar
     3     2     3  ar
     4     3     4  ar
     5     3     7   1
     6     4     5  ar
     7     4     9   1
     8     5     6  ar
     9     6    13   1
    10     7     8   2
    11     7    10   1
    12     8     9   1
    13     8    11   1
    14     9    12   1
    15    10    31   2
    16    10    34   1
    17    12    18   1
    18    13    14   1
    19    14    15   1
    20    14    16   1
    21    14    17   1
    22    18    19  ar
    23    18    23  ar
    24    19    20  ar
    25    20    21  ar
    26    20    25   1
    27    21    22  ar
    28    22    23  ar
    29    23    24   1
    30    25    26   1
    31    26    27   1
    32    26    28   1
    33    28    29  ar
    34    28    30  ar
    35    31    32   1
    36    32    33   1
    37    33    34  ar
    38    33    35  ar
    39    34    38  ar
    40    35    36  ar
    41    36    37  ar
    42    36    39   1
    43    37    38  ar
    44    39    40   1
    45     1    41   1
    46     2    42   1
    47     5    43   1
    48    11    44   1
    49    11    45   1
    50    11    46   1
    51    12    47   1
    52    12    48   1
    53    19    49   1
    54    21    50   1
    55    22    51   1
    56    26    52   1
    57    27    53   1
    58    27    54   1
    59    27    55   1
    60    35    56   1
    61    37    57   1
    62    38    58   1
    63    40    59   1
    64    40    60   1
    65    40    61   1
@<TRIPOS>SUBSTRUCTURE
     1  C03      1

