@<TRIPOS>MOLECULE
2p4y_ligand_052
    61    65
SMALL
GAST_HUCK
****
This file was generated by PARSER (from files_GN.cpp)

@<TRIPOS>ATOM
      1 C1         19.9683    6.9391    9.1767 C.ar        1 C03      -0.0494
      2 C2         19.0933    8.0418    9.1547 C.ar        1 C03      -0.0824
      3 C3         17.7164    7.8232    9.3552 C.ar        1 C03      -0.0320
      4 C4         17.2099    6.5354    9.5599 C.ar        1 C03       0.0592
      5 C5         18.0963    5.4353    9.6039 C.ar        1 C03      -0.0175
      6 C6         19.4791    5.6352    9.4079 C.ar        1 C03       0.0845
      7 C10        16.6431    8.7034    9.4165 C.2         1 C03      -0.0105
      8 C11        15.4957    7.9105    9.5667 C.2         1 C03       0.0574
      9 N12        15.8606    6.6034    9.6763 N.pl3       1 C03      -0.2466
     10 C13        16.7181   10.1113    9.3302 C.2         1 C03       0.0368
     11 C14        14.1037    8.4147    9.4712 C.3         1 C03      -0.0027
     12 C18        14.9523    5.4769    9.7570 C.3         1 C03       0.0846
     13 O19        20.3823    4.6092    9.5295 O.3         1 C03      -0.2340
     14 C20        20.1855    3.4323    8.7210 C.3         1 C03       0.5447
     15 F21        21.3129    2.6676    8.8907 F           1 C03      -0.1402
     16 F22        20.0406    3.7364    7.3830 F           1 C03      -0.1402
     17 F23        19.1223    2.6623    9.1348 F           1 C03      -0.1402
     18 C24        14.1326    5.4493   11.0076 C.ar        1 C03      -0.0091
     19 C27        12.7808    5.8772   10.9634 C.ar        1 C03      -0.0287
     20 C28        11.9587    5.8782   12.1064 C.ar        1 C03       0.0876
     21 C29        12.4978    5.4322   13.3260 C.ar        1 C03      -0.0391
     22 C30        13.8267    4.9806   13.3963 C.ar        1 C03      -0.0631
     23 C31        14.6491    4.9901   12.2525 C.ar        1 C03       0.0319
     24 CL1        16.2307    4.4113   12.4481 Cl          1 C03      -0.0872
     25 O36        10.7012    6.4367   12.1364 O.3         1 C03      -0.3024
     26 C37         9.6387    6.0076   11.2547 C.3         1 C03       0.1302
     27 C38         9.3457    4.4908   11.3339 C.3         1 C03      -0.0222
     28 C42         9.8210    6.5212    9.8771 C.2         1 C03       0.0683
     29 O44         9.7889    5.7178    8.7888 O.co2       1 C03      -0.5660
     30 O45        10.1511    7.8188    9.6871 O.co2       1 C03      -0.5660
     31 N46        17.4704   10.7802    8.4358 N.2         1 C03      -0.1679
     32 O47        17.2973   12.0736    8.5608 O.3         1 C03      -0.1876
     33 C48        16.4187   12.2954    9.5629 C.ar        1 C03       0.1433
     34 C49        16.0444   11.0630   10.0903 C.ar        1 C03       0.0134
     35 C50        15.9091   13.5003   10.0727 C.ar        1 C03       0.0032
     36 C51        15.0057   13.4502   11.1589 C.ar        1 C03       0.0851
     37 C52        14.6602   12.1996   11.7315 C.ar        1 C03      -0.0395
     38 C53        15.1691   10.9994   11.1923 C.ar        1 C03      -0.0670
     39 O57        14.5445   14.6212   11.6923 O.3         1 C03      -0.3234
     40 C58        13.1570   14.8814   11.4217 C.3         1 C03       0.0592
     41 H1         20.9698    7.0941    9.0378 H           1 C03       0.0459
     42 H2         19.4534    8.9859    9.0038 H           1 C03       0.0504
     43 H3         17.7562    4.4934    9.7904 H           1 C03       0.0444
     44 H4         14.0608    9.4378    9.0972 H           1 C03       0.0449
     45 H5         13.6270    8.3754   10.4501 H           1 C03       0.0449
     46 H6         13.5384    7.7980    8.7755 H           1 C03       0.0449
     47 H7         15.4757    4.5241    9.6804 H           1 C03       0.0764
     48 H8         14.3128    5.5150    8.8691 H           1 C03       0.0764
     49 H9         12.4001    6.2275   10.0859 H           1 C03       0.0480
     50 H10        11.9270    5.4484   14.1757 H           1 C03       0.0487
     51 H11        14.1938    4.6560   14.2959 H           1 C03       0.0578
     52 H12         8.7448    6.5092   11.6350 H           1 C03       0.0818
     53 H13         8.4357    4.2542   10.7721 H           1 C03       0.0276
     54 H14         9.1957    4.1915   12.3734 H           1 C03       0.0276
     55 H15        10.1728    3.9106   10.9189 H           1 C03       0.0276
     56 H16        16.1908   14.3951    9.6642 H           1 C03       0.0476
     57 H17        14.0411   12.1627   12.5435 H           1 C03       0.0490
     58 H18        14.9174   10.1048   11.6153 H           1 C03       0.0582
     59 H19        12.9104   15.8599   11.8342 H           1 C03       0.0578
     60 H20        12.5151   14.1401   11.9023 H           1 C03       0.0578
     61 H21        12.9512   14.9026   10.3488 H           1 C03       0.0578
@<TRIPOS>BOND
     1     1     2  ar
     2     1     6  ar
     3     2     3  ar
     4     3     4  ar
     5     3     7   1
     6     4     5  ar
     7     4     9   1
     8     5     6  ar
     9     6    13   1
    10     7     8   2
    11     7    10   1
    12     8     9   1
    13     8    11   1
    14     9    12   1
    15    10    31   2
    16    10    34   1
    17    12    18   1
    18    13    14   1
    19    14    15   1
    20    14    16   1
    21    14    17   1
    22    18    19  ar
    23    18    23  ar
    24    19    20  ar
    25    20    21  ar
    26    20    25   1
    27    21    22  ar
    28    22    23  ar
    29    23    24   1
    30    25    26   1
    31    26    27   1
    32    26    28   1
    33    28    29  ar
    34    28    30  ar
    35    31    32   1
    36    32    33   1
    37    33    34  ar
    38    33    35  ar
    39    34    38  ar
    40    35    36  ar
    41    36    37  ar
    42    36    39   1
    43    37    38  ar
    44    39    40   1
    45     1    41   1
    46     2    42   1
    47     5    43   1
    48    11    44   1
    49    11    45   1
    50    11    46   1
    51    12    47   1
    52    12    48   1
    53    19    49   1
    54    21    50   1
    55    22    51   1
    56    26    52   1
    57    27    53   1
    58    27    54   1
    59    27    55   1
    60    35    56   1
    61    37    57   1
    62    38    58   1
    63    40    59   1
    64    40    60   1
    65    40    61   1
@<TRIPOS>SUBSTRUCTURE
     1  C03      1

