@<TRIPOS>MOLECULE
2p4y_ligand_029
    61    65
SMALL
GAST_HUCK
****
This file was generated by PARSER (from files_GN.cpp)

@<TRIPOS>ATOM
      1 C1         15.2012   14.1348    5.0603 C.ar        1 C03      -0.0494
      2 C2         14.1406   13.8096    5.9307 C.ar        1 C03      -0.0824
      3 C3         13.6749   14.7885    6.8323 C.ar        1 C03      -0.0320
      4 C4         14.2497   16.0586    6.8919 C.ar        1 C03       0.0592
      5 C5         15.3273   16.3720    6.0349 C.ar        1 C03      -0.0175
      6 C6         15.7880   15.4198    5.0967 C.ar        1 C03       0.0845
      7 C10        12.6656   14.7571    7.7854 C.2         1 C03      -0.0105
      8 C11        12.6179   16.0232    8.3815 C.2         1 C03       0.0574
      9 N12        13.6071   16.7906    7.8403 N.pl3       1 C03      -0.2466
     10 C13        11.8521   13.6490    8.0572 C.2         1 C03       0.0368
     11 C14        11.6449   16.4455    9.4223 C.3         1 C03      -0.0027
     12 C18        13.9347   18.1479    8.2106 C.3         1 C03       0.0846
     13 O19        16.8454   15.7054    4.2702 O.3         1 C03      -0.2340
     14 C20        16.5581   16.5735    3.1538 C.3         1 C03       0.5447
     15 F21        17.7019   16.6677    2.4041 F           1 C03      -0.1402
     16 F22        16.2273   17.8506    3.5423 F           1 C03      -0.1402
     17 F23        15.5678   16.0771    2.3385 F           1 C03      -0.1402
     18 C24        14.8150   18.3200    9.4121 C.ar        1 C03      -0.0091
     19 C27        14.9505   17.2843   10.3737 C.ar        1 C03      -0.0287
     20 C28        15.6958   17.4604   11.5554 C.ar        1 C03       0.0876
     21 C29        16.3342   18.6910   11.7923 C.ar        1 C03      -0.0391
     22 C30        16.2652   19.7118   10.8347 C.ar        1 C03      -0.0631
     23 C31        15.4998   19.5437    9.6598 C.ar        1 C03       0.0319
     24 CL1        15.4568   20.8667    8.5951 Cl          1 C03      -0.0872
     25 O36        15.7357   16.4639   12.4966 O.3         1 C03      -0.3024
     26 C37        16.8278   15.5165   12.4317 C.3         1 C03       0.1302
     27 C38        18.2112   16.1748   12.6818 C.3         1 C03      -0.0222
     28 C42        16.7906   14.6622   11.2214 C.2         1 C03       0.0683
     29 O44        15.7519   13.8193   11.0382 O.co2       1 C03      -0.5660
     30 O45        17.5441   14.9601   10.1394 O.co2       1 C03      -0.5660
     31 N46        12.0956   12.7113    8.9920 N.2         1 C03      -0.1679
     32 O47        11.1468   11.8056    8.9816 O.3         1 C03      -0.1876
     33 C48        10.2507   12.1316    8.0220 C.ar        1 C03       0.1433
     34 C49        10.6744   13.3055    7.4129 C.ar        1 C03       0.0134
     35 C50         9.0699   11.4928    7.6096 C.ar        1 C03       0.0032
     36 C51         8.3042   12.0704    6.5691 C.ar        1 C03       0.0851
     37 C52         8.7567   13.2574    5.9404 C.ar        1 C03      -0.0395
     38 C53         9.9413   13.8921    6.3677 C.ar        1 C03      -0.0670
     39 O57         7.1688   11.4327    6.1424 O.3         1 C03      -0.3234
     40 C58         5.9452   12.1200    6.4621 C.3         1 C03       0.0592
     41 H1         15.5491   13.4317    4.4030 H           1 C03       0.0459
     42 H2         13.7198   12.8775    5.9050 H           1 C03       0.0504
     43 H3         15.7829   17.2833    6.0837 H           1 C03       0.0444
     44 H4         10.9735   15.6343    9.7014 H           1 C03       0.0449
     45 H5         11.0309   17.2591    9.0382 H           1 C03       0.0449
     46 H6         12.1629   16.7827   10.3216 H           1 C03       0.0449
     47 H7         13.0138   18.7056    8.3882 H           1 C03       0.0764
     48 H8         14.4032   18.6302    7.3528 H           1 C03       0.0764
     49 H9         14.4963   16.3802   10.2333 H           1 C03       0.0480
     50 H10        16.8677   18.8378   12.6524 H           1 C03       0.0487
     51 H11        16.7725   20.5851   11.0015 H           1 C03       0.0578
     52 H12        16.6647   14.8430   13.2766 H           1 C03       0.0818
     53 H13        18.9874   15.4122   12.7663 H           1 C03       0.0276
     54 H14        18.1867   16.7394   13.6161 H           1 C03       0.0276
     55 H15        18.4783   16.8560   11.8695 H           1 C03       0.0276
     56 H16         8.7811   10.6234    8.0578 H           1 C03       0.0476
     57 H17         8.2203   13.6635    5.1706 H           1 C03       0.0490
     58 H18        10.2600   14.7556    5.9247 H           1 C03       0.0582
     59 H19         5.1113   11.4929    6.1479 H           1 C03       0.0578
     60 H20         5.8742   13.0679    5.9244 H           1 C03       0.0578
     61 H21         5.8509   12.3014    7.5352 H           1 C03       0.0578
@<TRIPOS>BOND
     1     1     2  ar
     2     1     6  ar
     3     2     3  ar
     4     3     4  ar
     5     3     7   1
     6     4     5  ar
     7     4     9   1
     8     5     6  ar
     9     6    13   1
    10     7     8   2
    11     7    10   1
    12     8     9   1
    13     8    11   1
    14     9    12   1
    15    10    31   2
    16    10    34   1
    17    12    18   1
    18    13    14   1
    19    14    15   1
    20    14    16   1
    21    14    17   1
    22    18    19  ar
    23    18    23  ar
    24    19    20  ar
    25    20    21  ar
    26    20    25   1
    27    21    22  ar
    28    22    23  ar
    29    23    24   1
    30    25    26   1
    31    26    27   1
    32    26    28   1
    33    28    29  ar
    34    28    30  ar
    35    31    32   1
    36    32    33   1
    37    33    34  ar
    38    33    35  ar
    39    34    38  ar
    40    35    36  ar
    41    36    37  ar
    42    36    39   1
    43    37    38  ar
    44    39    40   1
    45     1    41   1
    46     2    42   1
    47     5    43   1
    48    11    44   1
    49    11    45   1
    50    11    46   1
    51    12    47   1
    52    12    48   1
    53    19    49   1
    54    21    50   1
    55    22    51   1
    56    26    52   1
    57    27    53   1
    58    27    54   1
    59    27    55   1
    60    35    56   1
    61    37    57   1
    62    38    58   1
    63    40    59   1
    64    40    60   1
    65    40    61   1
@<TRIPOS>SUBSTRUCTURE
     1  C03      1

