@<TRIPOS>MOLECULE
2p4y_ligand_014
    61    65
SMALL
GAST_HUCK
****
This file was generated by PARSER (from files_GN.cpp)

@<TRIPOS>ATOM
      1 C1          9.4535    7.0333   10.2374 C.ar        1 C03      -0.0494
      2 C2         10.8503    7.2007   10.2177 C.ar        1 C03      -0.0824
      3 C3         11.6627    6.2784   10.9103 C.ar        1 C03      -0.0320
      4 C4         11.1025    5.2053   11.6065 C.ar        1 C03       0.0592
      5 C5          9.7112    4.9953   11.5383 C.ar        1 C03      -0.0175
      6 C6          8.8650    5.9134   10.8769 C.ar        1 C03       0.0845
      7 C10        13.0401    6.2183   11.0799 C.2         1 C03      -0.0105
      8 C11        13.2645    5.1854   12.0056 C.2         1 C03       0.0574
      9 N12        12.0863    4.5629   12.2980 N.pl3       1 C03      -0.2466
     10 C13        13.9821    7.0847   10.4713 C.2         1 C03       0.0368
     11 C14        14.5587    4.9030   12.6841 C.3         1 C03      -0.0027
     12 C18        11.9485    3.4475   13.2226 C.3         1 C03       0.0846
     13 O19         7.5108    5.6809   10.9877 O.3         1 C03      -0.2340
     14 C20         6.5804    6.0761    9.9586 C.3         1 C03       0.5447
     15 F21         5.3801    5.4700   10.2251 F           1 C03      -0.1402
     16 F22         6.9728    5.6835    8.7014 F           1 C03      -0.1402
     17 F23         6.3625    7.4334    9.9715 F           1 C03      -0.1402
     18 C24        10.6969    3.3753   14.0317 C.ar        1 C03      -0.0091
     19 C27         9.9047    2.1999   13.9852 C.ar        1 C03      -0.0287
     20 C28         8.6756    2.1168   14.6692 C.ar        1 C03       0.0876
     21 C29         8.2346    3.2117   15.4324 C.ar        1 C03      -0.0391
     22 C30         9.0147    4.3768   15.5130 C.ar        1 C03      -0.0631
     23 C31        10.2499    4.4598   14.8360 C.ar        1 C03       0.0319
     24 CL1        11.1224    5.9080   14.9979 Cl          1 C03      -0.0872
     25 O36         7.9068    0.9834   14.6757 O.3         1 C03      -0.3024
     26 C37         7.1099    0.6163   13.5236 C.3         1 C03       0.1302
     27 C38         7.8289   -0.4821   12.7029 C.3         1 C03      -0.0222
     28 C42         6.6103    1.7286   12.6764 C.2         1 C03       0.0683
     29 O44         7.4186    2.3386   11.7797 O.co2       1 C03      -0.5660
     30 O45         5.3946    2.2741   12.9100 O.co2       1 C03      -0.5660
     31 N46        13.7954    8.4111   10.3129 N.2         1 C03      -0.1679
     32 O47        14.8279    8.9697    9.7335 O.3         1 C03      -0.1876
     33 C48        15.7458    8.0125    9.4884 C.ar        1 C03       0.1433
     34 C49        15.2279    6.7928    9.9172 C.ar        1 C03       0.0134
     35 C50        17.0217    8.1108    8.9098 C.ar        1 C03       0.0032
     36 C51        17.7990    6.9388    8.7778 C.ar        1 C03       0.0851
     37 C52        17.2608    5.6892    9.1685 C.ar        1 C03      -0.0395
     38 C53        15.9636    5.6066    9.7201 C.ar        1 C03      -0.0670
     39 O57        19.0304    6.9966    8.1916 O.3         1 C03      -0.3234
     40 C58        20.0982    7.2727    9.1124 C.3         1 C03       0.0592
     41 H1          8.8671    7.7386    9.7860 H           1 C03       0.0459
     42 H2         11.2650    8.0058    9.7464 H           1 C03       0.0504
     43 H3          9.2875    4.1908   11.9893 H           1 C03       0.0444
     44 H4         15.3631    5.5656   12.3673 H           1 C03       0.0449
     45 H5         14.8679    3.8722   12.4983 H           1 C03       0.0449
     46 H6         14.4437    5.0474   13.7600 H           1 C03       0.0449
     47 H7         12.7516    3.4511   13.9609 H           1 C03       0.0764
     48 H8         12.0911    2.5375   12.6384 H           1 C03       0.0764
     49 H9         10.2211    1.3853   13.4554 H           1 C03       0.0480
     50 H10         7.3467    3.1588   15.9404 H           1 C03       0.0487
     51 H11         8.6693    5.1689   16.0640 H           1 C03       0.0578
     52 H12         6.2267    0.1312   13.9508 H           1 C03       0.0818
     53 H13         7.1413   -0.9342   11.9831 H           1 C03       0.0276
     54 H14         8.1901   -1.2711   13.3671 H           1 C03       0.0276
     55 H15         8.6822   -0.0744   12.1599 H           1 C03       0.0276
     56 H16        17.3793    9.0196    8.6084 H           1 C03       0.0476
     57 H17        17.8111    4.8373    9.0440 H           1 C03       0.0490
     58 H18        15.5661    4.6993    9.9778 H           1 C03       0.0582
     59 H19        21.0316    7.3080    8.5515 H           1 C03       0.0578
     60 H20        20.1860    6.4883    9.8671 H           1 C03       0.0578
     61 H21        19.9619    8.2393    9.6016 H           1 C03       0.0578
@<TRIPOS>BOND
     1     1     2  ar
     2     1     6  ar
     3     2     3  ar
     4     3     4  ar
     5     3     7   1
     6     4     5  ar
     7     4     9   1
     8     5     6  ar
     9     6    13   1
    10     7     8   2
    11     7    10   1
    12     8     9   1
    13     8    11   1
    14     9    12   1
    15    10    31   2
    16    10    34   1
    17    12    18   1
    18    13    14   1
    19    14    15   1
    20    14    16   1
    21    14    17   1
    22    18    19  ar
    23    18    23  ar
    24    19    20  ar
    25    20    21  ar
    26    20    25   1
    27    21    22  ar
    28    22    23  ar
    29    23    24   1
    30    25    26   1
    31    26    27   1
    32    26    28   1
    33    28    29  ar
    34    28    30  ar
    35    31    32   1
    36    32    33   1
    37    33    34  ar
    38    33    35  ar
    39    34    38  ar
    40    35    36  ar
    41    36    37  ar
    42    36    39   1
    43    37    38  ar
    44    39    40   1
    45     1    41   1
    46     2    42   1
    47     5    43   1
    48    11    44   1
    49    11    45   1
    50    11    46   1
    51    12    47   1
    52    12    48   1
    53    19    49   1
    54    21    50   1
    55    22    51   1
    56    26    52   1
    57    27    53   1
    58    27    54   1
    59    27    55   1
    60    35    56   1
    61    37    57   1
    62    38    58   1
    63    40    59   1
    64    40    60   1
    65    40    61   1
@<TRIPOS>SUBSTRUCTURE
     1  C03      1

