@<TRIPOS>MOLECULE
2p4y_ligand_027
    61    65
SMALL
GAST_HUCK
****
This file was generated by PARSER (from files_GN.cpp)

@<TRIPOS>ATOM
      1 C1         13.0666   16.8908    7.1860 C.ar        1 C03      -0.0494
      2 C2         12.5007   15.6377    7.4843 C.ar        1 C03      -0.0824
      3 C3         13.2344   14.4710    7.1962 C.ar        1 C03      -0.0320
      4 C4         14.5256   14.5368    6.6682 C.ar        1 C03       0.0592
      5 C5         15.0833   15.7949    6.3489 C.ar        1 C03      -0.0175
      6 C6         14.3505   16.9735    6.6007 C.ar        1 C03       0.0845
      7 C10        12.9147   13.1264    7.3386 C.2         1 C03      -0.0105
      8 C11        14.0281   12.3997    6.8875 C.2         1 C03       0.0574
      9 N12        15.0107   13.2733    6.5224 N.pl3       1 C03      -0.2466
     10 C13        11.6794   12.6276    7.8042 C.2         1 C03       0.0368
     11 C14        14.0635   10.9265    6.7166 C.3         1 C03      -0.0027
     12 C18        16.3051   12.9441    5.9625 C.3         1 C03       0.0846
     13 O19        14.9074   18.1883    6.3062 O.3         1 C03      -0.2340
     14 C20        14.5738   18.7259    5.0110 C.3         1 C03       0.5447
     15 F21        15.2913   19.8859    4.8512 F           1 C03      -0.1402
     16 F22        13.2414   19.0509    4.9103 F           1 C03      -0.1402
     17 F23        14.9193   17.8869    3.9762 F           1 C03      -0.1402
     18 C24        17.4749   13.4166    6.7699 C.ar        1 C03      -0.0091
     19 C27        18.3088   14.4371    6.2506 C.ar        1 C03      -0.0287
     20 C28        19.4308   14.9119    6.9622 C.ar        1 C03       0.0876
     21 C29        19.7565   14.3355    8.2003 C.ar        1 C03      -0.0391
     22 C30        18.9575   13.3132    8.7317 C.ar        1 C03      -0.0631
     23 C31        17.8078   12.8762    8.0423 C.ar        1 C03       0.0319
     24 CL1        16.8890   11.6730    8.8022 Cl          1 C03      -0.0872
     25 O36        20.1600   15.9865    6.5332 O.3         1 C03      -0.3024
     26 C37        20.9005   15.8555    5.3035 C.3         1 C03       0.1302
     27 C38        22.4090   15.9531    5.6225 C.3         1 C03      -0.0222
     28 C42        20.4801   16.9260    4.3817 C.2         1 C03       0.0683
     29 O44        19.5473   17.8408    4.7292 O.co2       1 C03      -0.5660
     30 O45        20.9950   16.9840    3.1348 O.co2       1 C03      -0.5660
     31 N46        11.5363   11.8027    8.8619 N.2         1 C03      -0.1679
     32 O47        10.2741   11.5483    9.0744 O.3         1 C03      -0.1876
     33 C48         9.5355   12.2016    8.1476 C.ar        1 C03       0.1433
     34 C49        10.4031   12.8946    7.3136 C.ar        1 C03       0.0134
     35 C50         8.1465   12.2454    7.9580 C.ar        1 C03       0.0032
     36 C51         7.6305   12.9988    6.8791 C.ar        1 C03       0.0851
     37 C52         8.5174   13.6738    6.0039 C.ar        1 C03      -0.0395
     38 C53         9.9100   13.6384    6.2246 C.ar        1 C03      -0.0670
     39 O57         6.2819   13.0136    6.6428 O.3         1 C03      -0.3234
     40 C58         5.6110   14.1353    7.2432 C.3         1 C03       0.0592
     41 H1         12.5473   17.7423    7.3990 H           1 C03       0.0459
     42 H2         11.5675   15.5812    7.8910 H           1 C03       0.0504
     43 H3         16.0043   15.8639    5.9251 H           1 C03       0.0444
     44 H4         13.1574   10.4611    7.1030 H           1 C03       0.0449
     45 H5         14.9066   10.4907    7.2489 H           1 C03       0.0449
     46 H6         14.1541   10.6885    5.6554 H           1 C03       0.0449
     47 H7         16.3269   13.3605    4.9486 H           1 C03       0.0764
     48 H8         16.4246   11.8643    5.8323 H           1 C03       0.0764
     49 H9         18.1062   14.8525    5.3397 H           1 C03       0.0480
     50 H10        20.5759   14.6652    8.7151 H           1 C03       0.0487
     51 H11        19.2107   12.9083    9.6354 H           1 C03       0.0578
     52 H12        20.7201   14.8977    4.8045 H           1 C03       0.0818
     53 H13        22.9992   15.8647    4.7093 H           1 C03       0.0276
     54 H14        22.6984   15.1441    6.2982 H           1 C03       0.0276
     55 H15        22.6421   16.9082    6.1031 H           1 C03       0.0276
     56 H16         7.5244   11.7427    8.5927 H           1 C03       0.0476
     57 H17         8.1457   14.1937    5.2068 H           1 C03       0.0490
     58 H18        10.5472   14.1283    5.5932 H           1 C03       0.0582
     59 H19         4.5462   14.0489    7.0283 H           1 C03       0.0578
     60 H20         5.9661   15.0817    6.8263 H           1 C03       0.0578
     61 H21         5.7386   14.1457    8.3297 H           1 C03       0.0578
@<TRIPOS>BOND
     1     1     2  ar
     2     1     6  ar
     3     2     3  ar
     4     3     4  ar
     5     3     7   1
     6     4     5  ar
     7     4     9   1
     8     5     6  ar
     9     6    13   1
    10     7     8   2
    11     7    10   1
    12     8     9   1
    13     8    11   1
    14     9    12   1
    15    10    31   2
    16    10    34   1
    17    12    18   1
    18    13    14   1
    19    14    15   1
    20    14    16   1
    21    14    17   1
    22    18    19  ar
    23    18    23  ar
    24    19    20  ar
    25    20    21  ar
    26    20    25   1
    27    21    22  ar
    28    22    23  ar
    29    23    24   1
    30    25    26   1
    31    26    27   1
    32    26    28   1
    33    28    29  ar
    34    28    30  ar
    35    31    32   1
    36    32    33   1
    37    33    34  ar
    38    33    35  ar
    39    34    38  ar
    40    35    36  ar
    41    36    37  ar
    42    36    39   1
    43    37    38  ar
    44    39    40   1
    45     1    41   1
    46     2    42   1
    47     5    43   1
    48    11    44   1
    49    11    45   1
    50    11    46   1
    51    12    47   1
    52    12    48   1
    53    19    49   1
    54    21    50   1
    55    22    51   1
    56    26    52   1
    57    27    53   1
    58    27    54   1
    59    27    55   1
    60    35    56   1
    61    37    57   1
    62    38    58   1
    63    40    59   1
    64    40    60   1
    65    40    61   1
@<TRIPOS>SUBSTRUCTURE
     1  C03      1

