@<TRIPOS>MOLECULE
2p4y_ligand_039
    61    65
SMALL
GAST_HUCK
****
This file was generated by PARSER (from files_GN.cpp)

@<TRIPOS>ATOM
      1 C1          4.2168    5.5605    8.8132 C.ar        1 C03      -0.0494
      2 C2          5.1712    5.8481    9.8062 C.ar        1 C03      -0.0824
      3 C3          5.0038    7.0084   10.5815 C.ar        1 C03      -0.0320
      4 C4          3.8893    7.8316   10.4700 C.ar        1 C03       0.0592
      5 C5          2.9163    7.5204    9.4513 C.ar        1 C03      -0.0175
      6 C6          3.1055    6.4049    8.6217 C.ar        1 C03       0.0845
      7 C10         5.8387    7.5647   11.5519 C.2         1 C03      -0.0105
      8 C11         5.1622    8.6970   12.0359 C.2         1 C03       0.0574
      9 N12         3.9688    8.8236   11.3729 N.pl3       1 C03      -0.2466
     10 C13         7.1231    7.0991   11.9447 C.2         1 C03       0.0368
     11 C14         5.7144    9.6501   13.0305 C.3         1 C03      -0.0027
     12 C18         3.0375    9.9256   11.5476 C.3         1 C03       0.0846
     13 O19         2.3007    6.0478    7.5517 O.3         1 C03      -0.2340
     14 C20         0.8725    6.0059    7.6879 C.3         1 C03       0.5447
     15 F21         0.3995    5.2672    6.6376 F           1 C03      -0.1402
     16 F22         0.3384    7.2679    7.5863 F           1 C03      -0.1402
     17 F23         0.4469    5.4060    8.8523 F           1 C03      -0.1402
     18 C24         2.4902   10.0711   12.9302 C.ar        1 C03      -0.0091
     19 C27         3.0538   11.0441   13.8128 C.ar        1 C03      -0.0287
     20 C28         2.5994   11.1931   15.1331 C.ar        1 C03       0.0876
     21 C29         1.5470   10.3862   15.5971 C.ar        1 C03      -0.0391
     22 C30         0.9543    9.4286   14.7344 C.ar        1 C03      -0.0631
     23 C31         1.4282    9.2702   13.4190 C.ar        1 C03       0.0319
     24 CL1         0.5918    8.1559   12.4430 Cl          1 C03      -0.0872
     25 O36         3.2245   12.1411   15.9202 O.3         1 C03      -0.3024
     26 C37         3.6462   11.7957   17.2602 C.3         1 C03       0.1302
     27 C38         4.2677   13.0494   17.9284 C.3         1 C03      -0.0222
     28 C42         4.6163   10.6706   17.2980 C.2         1 C03       0.0683
     29 O44         5.8467   10.7777   16.7379 O.co2       1 C03      -0.5660
     30 O45         4.2818    9.5104   17.9103 O.co2       1 C03      -0.5660
     31 N46         7.5751    7.1101   13.2169 N.2         1 C03      -0.1679
     32 O47         8.7938    6.6392   13.2813 O.3         1 C03      -0.1876
     33 C48         9.1949    6.3227   12.0339 C.ar        1 C03       0.1433
     34 C49         8.1567    6.6136   11.1517 C.ar        1 C03       0.0134
     35 C50        10.4147    5.7965   11.5826 C.ar        1 C03       0.0032
     36 C51        10.6001    5.5836   10.1965 C.ar        1 C03       0.0851
     37 C52         9.5505    5.8894    9.2956 C.ar        1 C03      -0.0395
     38 C53         8.3312    6.4141    9.7659 C.ar        1 C03      -0.0670
     39 O57        11.7615    5.0070    9.7566 O.3         1 C03      -0.3234
     40 C58        12.7673    5.9415    9.3281 C.3         1 C03       0.0592
     41 H1          4.3578    4.7537    8.2109 H           1 C03       0.0459
     42 H2          5.9718    5.2301    9.9378 H           1 C03       0.0504
     43 H3          2.1213    8.1350    9.3183 H           1 C03       0.0444
     44 H4          6.7719    9.4772   13.2278 H           1 C03       0.0449
     45 H5          5.1680    9.5452   13.9695 H           1 C03       0.0449
     46 H6          5.6152   10.6743   12.6620 H           1 C03       0.0449
     47 H7          2.1852    9.8404   10.8715 H           1 C03       0.0764
     48 H8          3.5540   10.8365   11.2376 H           1 C03       0.0764
     49 H9          3.8069   11.6499   13.4810 H           1 C03       0.0480
     50 H10         1.1814   10.4961   16.5468 H           1 C03       0.0487
     51 H11         0.1869    8.8591   15.0939 H           1 C03       0.0578
     52 H12         2.7614   11.5245   17.8456 H           1 C03       0.0818
     53 H13         4.4888   12.8451   18.9814 H           1 C03       0.0276
     54 H14         3.5639   13.8835   17.8834 H           1 C03       0.0276
     55 H15         5.1936   13.3457   17.4226 H           1 C03       0.0276
     56 H16        11.1563    5.5639   12.2479 H           1 C03       0.0476
     57 H17         9.6724    5.7279    8.2946 H           1 C03       0.0490
     58 H18         7.5851    6.6502    9.1092 H           1 C03       0.0582
     59 H19        13.6578    5.3754    9.0533 H           1 C03       0.0578
     60 H20        13.0369    6.6360   10.1280 H           1 C03       0.0578
     61 H21        12.4382    6.5020    8.4500 H           1 C03       0.0578
@<TRIPOS>BOND
     1     1     2  ar
     2     1     6  ar
     3     2     3  ar
     4     3     4  ar
     5     3     7   1
     6     4     5  ar
     7     4     9   1
     8     5     6  ar
     9     6    13   1
    10     7     8   2
    11     7    10   1
    12     8     9   1
    13     8    11   1
    14     9    12   1
    15    10    31   2
    16    10    34   1
    17    12    18   1
    18    13    14   1
    19    14    15   1
    20    14    16   1
    21    14    17   1
    22    18    19  ar
    23    18    23  ar
    24    19    20  ar
    25    20    21  ar
    26    20    25   1
    27    21    22  ar
    28    22    23  ar
    29    23    24   1
    30    25    26   1
    31    26    27   1
    32    26    28   1
    33    28    29  ar
    34    28    30  ar
    35    31    32   1
    36    32    33   1
    37    33    34  ar
    38    33    35  ar
    39    34    38  ar
    40    35    36  ar
    41    36    37  ar
    42    36    39   1
    43    37    38  ar
    44    39    40   1
    45     1    41   1
    46     2    42   1
    47     5    43   1
    48    11    44   1
    49    11    45   1
    50    11    46   1
    51    12    47   1
    52    12    48   1
    53    19    49   1
    54    21    50   1
    55    22    51   1
    56    26    52   1
    57    27    53   1
    58    27    54   1
    59    27    55   1
    60    35    56   1
    61    37    57   1
    62    38    58   1
    63    40    59   1
    64    40    60   1
    65    40    61   1
@<TRIPOS>SUBSTRUCTURE
     1  C03      1

