@<TRIPOS>MOLECULE
2p4y_ligand_072
    61    65
SMALL
GAST_HUCK
****
This file was generated by PARSER (from files_GN.cpp)

@<TRIPOS>ATOM
      1 C1         18.6750   12.4069    9.4576 C.ar        1 C03      -0.0494
      2 C2         17.4294   11.7589    9.3977 C.ar        1 C03      -0.0824
      3 C3         16.4746   12.1838    8.4510 C.ar        1 C03      -0.0320
      4 C4         16.7266   13.2792    7.6200 C.ar        1 C03       0.0592
      5 C5         17.9775   13.9363    7.6930 C.ar        1 C03      -0.0175
      6 C6         18.9748   13.4778    8.5887 C.ar        1 C03       0.0845
      7 C10        15.1859   11.7364    8.1684 C.2         1 C03      -0.0105
      8 C11        14.6797   12.6018    7.1894 C.2         1 C03       0.0574
      9 N12        15.6307   13.5183    6.8569 N.pl3       1 C03      -0.2466
     10 C13        14.5284   10.6511    8.7916 C.2         1 C03       0.0368
     11 C14        13.3279   12.5223    6.5824 C.3         1 C03      -0.0027
     12 C18        15.4825   14.6055    5.9116 C.3         1 C03       0.0846
     13 O19        20.2078   14.0764    8.6824 O.3         1 C03      -0.2340
     14 C20        20.9443   14.3062    7.4622 C.3         1 C03       0.5447
     15 F21        22.2687   14.4417    7.7964 F           1 C03      -0.1402
     16 F22        20.5582   15.4802    6.8628 F           1 C03      -0.1402
     17 F23        20.8649   13.2824    6.5474 F           1 C03      -0.1402
     18 C24        15.1479   14.1921    4.5144 C.ar        1 C03      -0.0091
     19 C27        14.0475   14.8035    3.8619 C.ar        1 C03      -0.0287
     20 C28        13.7091   14.4847    2.5311 C.ar        1 C03       0.0876
     21 C29        14.4459   13.5004    1.8505 C.ar        1 C03      -0.0391
     22 C30        15.5401   12.8811    2.4744 C.ar        1 C03      -0.0631
     23 C31        15.9074   13.2289    3.7921 C.ar        1 C03       0.0319
     24 CL1        17.2773   12.4608    4.4309 Cl          1 C03      -0.0872
     25 O36        12.6555   15.1020    1.9106 O.3         1 C03      -0.3024
     26 C37        12.9153   16.4392    1.4265 C.3         1 C03       0.1302
     27 C38        11.5557   17.1207    1.1465 C.3         1 C03      -0.0222
     28 C42        13.7456   16.4296    0.2003 C.2         1 C03       0.0683
     29 O44        13.3636   15.7141   -0.8853 O.co2       1 C03      -0.5660
     30 O45        14.9622   17.0283    0.1847 O.co2       1 C03      -0.5660
     31 N46        13.2469   10.6754    9.2077 N.2         1 C03      -0.1679
     32 O47        12.9158    9.5377    9.7676 O.3         1 C03      -0.1876
     33 C48        13.9903    8.7192    9.7387 C.ar        1 C03       0.1433
     34 C49        15.0352    9.3934    9.1115 C.ar        1 C03       0.0134
     35 C50        14.1445    7.4111   10.2245 C.ar        1 C03       0.0032
     36 C51        15.3865    6.7658   10.0490 C.ar        1 C03       0.0851
     37 C52        16.4501    7.4423    9.4047 C.ar        1 C03      -0.0395
     38 C53        16.2765    8.7556    8.9168 C.ar        1 C03      -0.0670
     39 O57        15.5803    5.5037   10.5418 O.3         1 C03      -0.3234
     40 C58        15.2285    4.4674    9.6091 C.3         1 C03       0.0592
     41 H1         19.3645   12.1005   10.1432 H           1 C03       0.0459
     42 H2         17.2177   10.9942   10.0484 H           1 C03       0.0504
     43 H3         18.1777   14.7456    7.1017 H           1 C03       0.0444
     44 H4         12.7190   11.7255    7.0093 H           1 C03       0.0449
     45 H5         13.4197   12.3238    5.5138 H           1 C03       0.0449
     46 H6         12.8008   13.4683    6.7280 H           1 C03       0.0449
     47 H7         16.3839   15.2123    5.8379 H           1 C03       0.0764
     48 H8         14.7175   15.2731    6.3204 H           1 C03       0.0764
     49 H9         13.4794   15.5001    4.3494 H           1 C03       0.0480
     50 H10        14.1943   13.2440    0.8919 H           1 C03       0.0487
     51 H11        16.0758   12.1797    1.9551 H           1 C03       0.0578
     52 H12        13.4165   17.0347    2.1945 H           1 C03       0.0818
     53 H13        11.7044   18.1453    0.8000 H           1 C03       0.0276
     54 H14        10.9654   17.1498    2.0629 H           1 C03       0.0276
     55 H15        10.9958   16.5679    0.3899 H           1 C03       0.0276
     56 H16        13.3674    6.9430   10.6924 H           1 C03       0.0476
     57 H17        17.3510    6.9755    9.2812 H           1 C03       0.0490
     58 H18        17.0380    9.2324    8.4330 H           1 C03       0.0582
     59 H19        15.4052    3.5061   10.0917 H           1 C03       0.0578
     60 H20        15.8439    4.5146    8.7061 H           1 C03       0.0578
     61 H21        14.1715    4.5192    9.3335 H           1 C03       0.0578
@<TRIPOS>BOND
     1     1     2  ar
     2     1     6  ar
     3     2     3  ar
     4     3     4  ar
     5     3     7   1
     6     4     5  ar
     7     4     9   1
     8     5     6  ar
     9     6    13   1
    10     7     8   2
    11     7    10   1
    12     8     9   1
    13     8    11   1
    14     9    12   1
    15    10    31   2
    16    10    34   1
    17    12    18   1
    18    13    14   1
    19    14    15   1
    20    14    16   1
    21    14    17   1
    22    18    19  ar
    23    18    23  ar
    24    19    20  ar
    25    20    21  ar
    26    20    25   1
    27    21    22  ar
    28    22    23  ar
    29    23    24   1
    30    25    26   1
    31    26    27   1
    32    26    28   1
    33    28    29  ar
    34    28    30  ar
    35    31    32   1
    36    32    33   1
    37    33    34  ar
    38    33    35  ar
    39    34    38  ar
    40    35    36  ar
    41    36    37  ar
    42    36    39   1
    43    37    38  ar
    44    39    40   1
    45     1    41   1
    46     2    42   1
    47     5    43   1
    48    11    44   1
    49    11    45   1
    50    11    46   1
    51    12    47   1
    52    12    48   1
    53    19    49   1
    54    21    50   1
    55    22    51   1
    56    26    52   1
    57    27    53   1
    58    27    54   1
    59    27    55   1
    60    35    56   1
    61    37    57   1
    62    38    58   1
    63    40    59   1
    64    40    60   1
    65    40    61   1
@<TRIPOS>SUBSTRUCTURE
     1  C03      1

