@<TRIPOS>MOLECULE
2p4y_ligand_044
    61    65
SMALL
GAST_HUCK
****
This file was generated by PARSER (from files_GN.cpp)

@<TRIPOS>ATOM
      1 C1          7.3700    5.6411   10.0458 C.ar        1 C03      -0.0494
      2 C2          6.4982    6.4535   10.7967 C.ar        1 C03      -0.0824
      3 C3          6.8054    6.7620   12.1413 C.ar        1 C03      -0.0320
      4 C4          7.9514    6.2128   12.7279 C.ar        1 C03       0.0592
      5 C5          8.8397    5.4169   11.9752 C.ar        1 C03      -0.0175
      6 C6          8.5563    5.1412   10.6225 C.ar        1 C03       0.0845
      7 C10         6.1905    7.5903   13.0915 C.2         1 C03      -0.0105
      8 C11         7.0386    7.5341   14.2155 C.2         1 C03       0.0574
      9 N12         8.0181    6.6080   14.0205 N.pl3       1 C03      -0.2466
     10 C13         5.0204    8.3849   12.8683 C.2         1 C03       0.0368
     11 C14         7.1000    8.5183   15.3242 C.3         1 C03      -0.0027
     12 C18         9.0365    6.2127   14.9845 C.3         1 C03       0.0846
     13 O19         9.3723    4.2933    9.9250 O.3         1 C03      -0.2340
     14 C20        10.3328    4.9055    9.0438 C.3         1 C03       0.5447
     15 F21        11.1055    3.8988    8.5232 F           1 C03      -0.1402
     16 F22        11.1764    5.7776    9.6915 F           1 C03      -0.1402
     17 F23         9.7248    5.5465    7.9912 F           1 C03      -0.1402
     18 C24         9.4675    4.7783   14.9599 C.ar        1 C03      -0.0091
     19 C27         8.4831    3.7601   14.9066 C.ar        1 C03      -0.0287
     20 C28         8.8291    2.3982   14.8019 C.ar        1 C03       0.0876
     21 C29        10.1845    2.0315   14.8607 C.ar        1 C03      -0.0391
     22 C30        11.1801    3.0149   14.9522 C.ar        1 C03      -0.0631
     23 C31        10.8362    4.3826   14.9950 C.ar        1 C03       0.0319
     24 CL1        12.1306    5.4742   15.1181 Cl          1 C03      -0.0872
     25 O36         7.8617    1.4263   14.7239 O.3         1 C03      -0.3024
     26 C37         7.4284    0.9859   13.4110 C.3         1 C03       0.1302
     27 C38         8.4966    0.1901   12.6086 C.3         1 C03      -0.0222
     28 C42         6.8020    2.0795   12.6279 C.2         1 C03       0.0683
     29 O44         7.4400    2.6854   11.5952 O.co2       1 C03      -0.5660
     30 O45         5.5286    2.4569   12.8853 O.co2       1 C03      -0.5660
     31 N46         4.5061    8.5456   11.6319 N.2         1 C03      -0.1679
     32 O47         3.4477    9.3140   11.6188 O.3         1 C03      -0.1876
     33 C48         3.2119    9.6962   12.8852 C.ar        1 C03       0.1433
     34 C49         4.1724    9.1122   13.7147 C.ar        1 C03       0.0134
     35 C50         2.1998   10.5432   13.3660 C.ar        1 C03       0.0032
     36 C51         2.1404   10.8019   14.7499 C.ar        1 C03       0.0851
     37 C52         3.0884   10.2087   15.6144 C.ar        1 C03      -0.0395
     38 C53         4.0896    9.3438   15.1036 C.ar        1 C03      -0.0670
     39 O57         1.2097   11.6638   15.2435 O.3         1 C03      -0.3234
     40 C58         0.0230   11.0116   15.7270 C.3         1 C03       0.0592
     41 H1          7.1393    5.4154    9.0749 H           1 C03       0.0459
     42 H2          5.6561    6.8096   10.3467 H           1 C03       0.0504
     43 H3          9.6993    5.0530   12.3898 H           1 C03       0.0444
     44 H4          6.7785    8.0653   16.2604 H           1 C03       0.0449
     45 H5          6.4993    9.3997   15.1220 H           1 C03       0.0449
     46 H6          8.1362    8.8605   15.4422 H           1 C03       0.0449
     47 H7          8.6892    6.3941   16.0042 H           1 C03       0.0764
     48 H8          9.8836    6.8805   14.8155 H           1 C03       0.0764
     49 H9          7.4919    4.0074   14.9091 H           1 C03       0.0480
     50 H10        10.4508    1.0468   14.8312 H           1 C03       0.0487
     51 H11        12.1610    2.7234   14.9917 H           1 C03       0.0578
     52 H12         6.6255    0.2734   13.6070 H           1 C03       0.0818
     53 H13         8.0548   -0.2229   11.6985 H           1 C03       0.0276
     54 H14         8.8758   -0.6367   13.2079 H           1 C03       0.0276
     55 H15         9.3344    0.8308   12.3219 H           1 C03       0.0276
     56 H16         1.5262   10.9636   12.7237 H           1 C03       0.0476
     57 H17         3.0518   10.3998   16.6186 H           1 C03       0.0490
     58 H18         4.7496    8.9107   15.7486 H           1 C03       0.0582
     59 H19        -0.6589   11.7728   16.1115 H           1 C03       0.0578
     60 H20         0.2493   10.3197   16.5426 H           1 C03       0.0578
     61 H21        -0.4886   10.4713   14.9261 H           1 C03       0.0578
@<TRIPOS>BOND
     1     1     2  ar
     2     1     6  ar
     3     2     3  ar
     4     3     4  ar
     5     3     7   1
     6     4     5  ar
     7     4     9   1
     8     5     6  ar
     9     6    13   1
    10     7     8   2
    11     7    10   1
    12     8     9   1
    13     8    11   1
    14     9    12   1
    15    10    31   2
    16    10    34   1
    17    12    18   1
    18    13    14   1
    19    14    15   1
    20    14    16   1
    21    14    17   1
    22    18    19  ar
    23    18    23  ar
    24    19    20  ar
    25    20    21  ar
    26    20    25   1
    27    21    22  ar
    28    22    23  ar
    29    23    24   1
    30    25    26   1
    31    26    27   1
    32    26    28   1
    33    28    29  ar
    34    28    30  ar
    35    31    32   1
    36    32    33   1
    37    33    34  ar
    38    33    35  ar
    39    34    38  ar
    40    35    36  ar
    41    36    37  ar
    42    36    39   1
    43    37    38  ar
    44    39    40   1
    45     1    41   1
    46     2    42   1
    47     5    43   1
    48    11    44   1
    49    11    45   1
    50    11    46   1
    51    12    47   1
    52    12    48   1
    53    19    49   1
    54    21    50   1
    55    22    51   1
    56    26    52   1
    57    27    53   1
    58    27    54   1
    59    27    55   1
    60    35    56   1
    61    37    57   1
    62    38    58   1
    63    40    59   1
    64    40    60   1
    65    40    61   1
@<TRIPOS>SUBSTRUCTURE
     1  C03      1

