@<TRIPOS>MOLECULE
2p4y_ligand_020
    61    65
SMALL
GAST_HUCK
****
This file was generated by PARSER (from files_GN.cpp)

@<TRIPOS>ATOM
      1 C1          2.8138    9.4591   10.7290 C.ar        1 C03      -0.0494
      2 C2          3.6321    9.5398   11.8726 C.ar        1 C03      -0.0824
      3 C3          4.6335    8.5705   12.0702 C.ar        1 C03      -0.0320
      4 C4          4.8807    7.5794   11.1219 C.ar        1 C03       0.0592
      5 C5          4.0503    7.4967    9.9761 C.ar        1 C03      -0.0175
      6 C6          2.9888    8.4157    9.7892 C.ar        1 C03       0.0845
      7 C10         5.5153    8.3735   13.1252 C.2         1 C03      -0.0105
      8 C11         6.3017    7.2622   12.7848 C.2         1 C03       0.0574
      9 N12         5.9248    6.8150   11.5446 N.pl3       1 C03      -0.2466
     10 C13         5.5355    9.1128   14.3263 C.2         1 C03       0.0368
     11 C14         7.2704    6.6298   13.7191 C.3         1 C03      -0.0027
     12 C18         6.4015    5.6850   10.7657 C.3         1 C03       0.0846
     13 O19         2.2147    8.3071    8.6537 O.3         1 C03      -0.2340
     14 C20         0.7777    8.4013    8.7624 C.3         1 C03       0.5447
     15 F21         0.2451    8.0132    7.5604 F           1 C03      -0.1402
     16 F22         0.3467    9.6862    8.9855 F           1 C03      -0.1402
     17 F23         0.2605    7.5728    9.7296 F           1 C03      -0.1402
     18 C24         7.7331    5.0963   11.1054 C.ar        1 C03      -0.0091
     19 C27         8.8828    5.8899   10.8748 C.ar        1 C03      -0.0287
     20 C28        10.1705    5.4369   11.2207 C.ar        1 C03       0.0876
     21 C29        10.3266    4.1637   11.7968 C.ar        1 C03      -0.0391
     22 C30         9.2034    3.3495   12.0160 C.ar        1 C03      -0.0631
     23 C31         7.9092    3.8048   11.6798 C.ar        1 C03       0.0319
     24 CL1         6.6149    2.7947   12.1152 Cl          1 C03      -0.0872
     25 O36        11.2456    6.2799   11.1110 O.3         1 C03      -0.3024
     26 C37        11.7489    6.5004    9.7744 C.3         1 C03       0.1302
     27 C38        13.0628    5.7120    9.5656 C.3         1 C03      -0.0222
     28 C42        11.9406    7.9535    9.6127 C.2         1 C03       0.0683
     29 O44        10.8774    8.7173    9.2765 O.co2       1 C03      -0.5660
     30 O45        12.9917    8.5785   10.1887 O.co2       1 C03      -0.5660
     31 N46         6.6439    9.6126   14.9086 N.2         1 C03      -0.1679
     32 O47         6.3390   10.2285   16.0243 O.3         1 C03      -0.1876
     33 C48         5.0041   10.1449   16.2123 C.ar        1 C03       0.1433
     34 C49         4.4604    9.4305   15.1504 C.ar        1 C03       0.0134
     35 C50         4.1969   10.6362   17.2520 C.ar        1 C03       0.0032
     36 C51         2.8051   10.3881   17.2061 C.ar        1 C03       0.0851
     37 C52         2.2520    9.6560   16.1282 C.ar        1 C03      -0.0395
     38 C53         3.0816    9.1466   15.1085 C.ar        1 C03      -0.0670
     39 O57         1.9860   10.8864   18.1799 O.3         1 C03      -0.3234
     40 C58         1.7855    9.9677   19.2675 C.3         1 C03       0.0592
     41 H1          2.0852   10.1621   10.5901 H           1 C03       0.0459
     42 H2          3.4905   10.2905   12.5515 H           1 C03       0.0504
     43 H3          4.1993    6.7583    9.2869 H           1 C03       0.0444
     44 H4          7.2643    7.0850   14.7096 H           1 C03       0.0449
     45 H5          8.2837    6.7113   13.3303 H           1 C03       0.0449
     46 H6          7.0151    5.5788   13.8484 H           1 C03       0.0449
     47 H7          6.4725    5.9905    9.7162 H           1 C03       0.0764
     48 H8          5.6177    4.9283   10.7976 H           1 C03       0.0764
     49 H9          8.7850    6.8345   10.4932 H           1 C03       0.0480
     50 H10        11.2520    3.8379   12.0841 H           1 C03       0.0487
     51 H11         9.3311    2.4365   12.4574 H           1 C03       0.0578
     52 H12        11.0419    6.1798    8.9977 H           1 C03       0.0818
     53 H13        13.4839    5.9399    8.5847 H           1 C03       0.0276
     54 H14        12.8664    4.6404    9.6200 H           1 C03       0.0276
     55 H15        13.7937    5.9714   10.3342 H           1 C03       0.0276
     56 H16         4.6136   11.1604   18.0243 H           1 C03       0.0476
     57 H17         1.2441    9.4859   16.0914 H           1 C03       0.0490
     58 H18         2.6802    8.5868   14.3538 H           1 C03       0.0582
     59 H19         1.1234   10.4429   19.9904 H           1 C03       0.0578
     60 H20         2.7290    9.7354   19.7680 H           1 C03       0.0578
     61 H21         1.3130    9.0406   18.9311 H           1 C03       0.0578
@<TRIPOS>BOND
     1     1     2  ar
     2     1     6  ar
     3     2     3  ar
     4     3     4  ar
     5     3     7   1
     6     4     5  ar
     7     4     9   1
     8     5     6  ar
     9     6    13   1
    10     7     8   2
    11     7    10   1
    12     8     9   1
    13     8    11   1
    14     9    12   1
    15    10    31   2
    16    10    34   1
    17    12    18   1
    18    13    14   1
    19    14    15   1
    20    14    16   1
    21    14    17   1
    22    18    19  ar
    23    18    23  ar
    24    19    20  ar
    25    20    21  ar
    26    20    25   1
    27    21    22  ar
    28    22    23  ar
    29    23    24   1
    30    25    26   1
    31    26    27   1
    32    26    28   1
    33    28    29  ar
    34    28    30  ar
    35    31    32   1
    36    32    33   1
    37    33    34  ar
    38    33    35  ar
    39    34    38  ar
    40    35    36  ar
    41    36    37  ar
    42    36    39   1
    43    37    38  ar
    44    39    40   1
    45     1    41   1
    46     2    42   1
    47     5    43   1
    48    11    44   1
    49    11    45   1
    50    11    46   1
    51    12    47   1
    52    12    48   1
    53    19    49   1
    54    21    50   1
    55    22    51   1
    56    26    52   1
    57    27    53   1
    58    27    54   1
    59    27    55   1
    60    35    56   1
    61    37    57   1
    62    38    58   1
    63    40    59   1
    64    40    60   1
    65    40    61   1
@<TRIPOS>SUBSTRUCTURE
     1  C03      1

