@<TRIPOS>MOLECULE
2p4y_ligand_012
    61    65
SMALL
GAST_HUCK
****
This file was generated by PARSER (from files_GN.cpp)

@<TRIPOS>ATOM
      1 C1         14.5238   19.2836    9.2113 C.ar        1 C03      -0.0494
      2 C2         15.7303   19.4445    9.9161 C.ar        1 C03      -0.0824
      3 C3         16.2708   18.3413   10.6076 C.ar        1 C03      -0.0320
      4 C4         15.6456   17.0945   10.6189 C.ar        1 C03       0.0592
      5 C5         14.4745   16.9252    9.8361 C.ar        1 C03      -0.0175
      6 C6         13.9052   18.0139    9.1555 C.ar        1 C03       0.0845
      7 C10        17.4364   18.2286   11.3557 C.2         1 C03      -0.0105
      8 C11        17.4670   16.9214   11.8525 C.2         1 C03       0.0574
      9 N12        16.3423   16.2653   11.4487 N.pl3       1 C03      -0.2466
     10 C13        18.3717   19.2500   11.5725 C.2         1 C03       0.0368
     11 C14        18.5399   16.3704   12.7247 C.3         1 C03      -0.0027
     12 C18        16.0049   14.9388   11.9287 C.3         1 C03       0.0846
     13 O19        12.6988   17.8536    8.5216 O.3         1 C03      -0.2340
     14 C20        12.7682   17.5344    7.1209 C.3         1 C03       0.5447
     15 F21        11.4844   17.3138    6.6934 F           1 C03      -0.1402
     16 F22        13.4869   16.3891    6.8618 F           1 C03      -0.1402
     17 F23        13.2794   18.5768    6.3855 F           1 C03      -0.1402
     18 C24        14.6114   14.4406   11.7420 C.ar        1 C03      -0.0091
     19 C27        14.3920   13.2703   10.9854 C.ar        1 C03      -0.0287
     20 C28        13.0925   12.8396   10.6501 C.ar        1 C03       0.0876
     21 C29        11.9895   13.5803   11.0988 C.ar        1 C03      -0.0391
     22 C30        12.1805   14.7351   11.8800 C.ar        1 C03      -0.0631
     23 C31        13.4731   15.1480   12.2475 C.ar        1 C03       0.0319
     24 CL1        13.5940   16.5364   13.2105 Cl          1 C03      -0.0872
     25 O36        12.9553   11.6795    9.9333 O.3         1 C03      -0.3024
     26 C37        12.6828   11.7538    8.5179 C.3         1 C03       0.1302
     27 C38        13.5979   12.7346    7.7337 C.3         1 C03      -0.0222
     28 C42        11.2369   11.9851    8.2867 C.2         1 C03       0.0683
     29 O44        10.3424   11.2702    9.0100 O.co2       1 C03      -0.5660
     30 O45        10.7923   12.5018    7.1174 O.co2       1 C03      -0.5660
     31 N46        19.6276   19.2691   11.0914 N.2         1 C03      -0.1679
     32 O47        20.2437   20.3591   11.4821 O.3         1 C03      -0.1876
     33 C48        19.3974   21.0820   12.2449 C.ar        1 C03       0.1433
     34 C49        18.1906   20.4005   12.3268 C.ar        1 C03       0.0134
     35 C50        19.5822   22.3069   12.9109 C.ar        1 C03       0.0032
     36 C51        18.5211   22.8252   13.6880 C.ar        1 C03       0.0851
     37 C52        17.2914   22.1271   13.7624 C.ar        1 C03      -0.0395
     38 C53        17.1191   20.9021   13.0840 C.ar        1 C03      -0.0670
     39 O57        18.6742   24.0210   14.3286 O.3         1 C03      -0.3234
     40 C58        19.1018   23.8836   15.6944 C.3         1 C03       0.0592
     41 H1         14.1051   20.0818    8.7362 H           1 C03       0.0459
     42 H2         16.1924   20.3575    9.9403 H           1 C03       0.0504
     43 H3         14.0281   16.0133    9.7537 H           1 C03       0.0444
     44 H4         19.3683   17.0687   12.8514 H           1 C03       0.0449
     45 H5         18.9356   15.4559   12.2810 H           1 C03       0.0449
     46 H6         18.1416   16.1381   13.7145 H           1 C03       0.0449
     47 H7         16.1891   14.8881   13.0035 H           1 C03       0.0764
     48 H8         16.7223   14.2546   11.4579 H           1 C03       0.0764
     49 H9         15.1855   12.7060   10.6608 H           1 C03       0.0480
     50 H10        11.0382   13.2860   10.8607 H           1 C03       0.0487
     51 H11        11.3644   15.2857   12.1597 H           1 C03       0.0578
     52 H12        12.8906   10.7570    8.1310 H           1 C03       0.0818
     53 H13        13.4802   12.5889    6.6544 H           1 C03       0.0276
     54 H14        14.6448   12.5561    7.9874 H           1 C03       0.0276
     55 H15        13.3518   13.7707    7.9752 H           1 C03       0.0276
     56 H16        20.4739   22.8012   12.8393 H           1 C03       0.0476
     57 H17        16.5211   22.5072   14.3160 H           1 C03       0.0490
     58 H18        16.2364   20.3881   13.1487 H           1 C03       0.0582
     59 H19        19.2201   24.8832   16.1138 H           1 C03       0.0578
     60 H20        20.0640   23.3691   15.7648 H           1 C03       0.0578
     61 H21        18.3586   23.3497   16.2922 H           1 C03       0.0578
@<TRIPOS>BOND
     1     1     2  ar
     2     1     6  ar
     3     2     3  ar
     4     3     4  ar
     5     3     7   1
     6     4     5  ar
     7     4     9   1
     8     5     6  ar
     9     6    13   1
    10     7     8   2
    11     7    10   1
    12     8     9   1
    13     8    11   1
    14     9    12   1
    15    10    31   2
    16    10    34   1
    17    12    18   1
    18    13    14   1
    19    14    15   1
    20    14    16   1
    21    14    17   1
    22    18    19  ar
    23    18    23  ar
    24    19    20  ar
    25    20    21  ar
    26    20    25   1
    27    21    22  ar
    28    22    23  ar
    29    23    24   1
    30    25    26   1
    31    26    27   1
    32    26    28   1
    33    28    29  ar
    34    28    30  ar
    35    31    32   1
    36    32    33   1
    37    33    34  ar
    38    33    35  ar
    39    34    38  ar
    40    35    36  ar
    41    36    37  ar
    42    36    39   1
    43    37    38  ar
    44    39    40   1
    45     1    41   1
    46     2    42   1
    47     5    43   1
    48    11    44   1
    49    11    45   1
    50    11    46   1
    51    12    47   1
    52    12    48   1
    53    19    49   1
    54    21    50   1
    55    22    51   1
    56    26    52   1
    57    27    53   1
    58    27    54   1
    59    27    55   1
    60    35    56   1
    61    37    57   1
    62    38    58   1
    63    40    59   1
    64    40    60   1
    65    40    61   1
@<TRIPOS>SUBSTRUCTURE
     1  C03      1

