@<TRIPOS>MOLECULE
2p4y_ligand_028
    61    65
SMALL
GAST_HUCK
****
This file was generated by PARSER (from files_GN.cpp)

@<TRIPOS>ATOM
      1 C1          9.3816    3.9013   13.8360 C.ar        1 C03      -0.0494
      2 C2          8.8488    4.4411   12.6478 C.ar        1 C03      -0.0824
      3 C3          9.7153    4.7492   11.5772 C.ar        1 C03      -0.0320
      4 C4         11.0822    4.4821   11.6664 C.ar        1 C03       0.0592
      5 C5         11.6121    3.9311   12.8563 C.ar        1 C03      -0.0175
      6 C6         10.7641    3.6361   13.9432 C.ar        1 C03       0.0845
      7 C10         9.4681    5.2568   10.3001 C.2         1 C03      -0.0105
      8 C11        10.7058    5.2268    9.6300 C.2         1 C03       0.0574
      9 N12        11.6791    4.7970   10.4870 N.pl3       1 C03      -0.2466
     10 C13         8.2025    5.6413    9.7860 C.2         1 C03       0.0368
     11 C14        10.9275    5.5777    8.2038 C.3         1 C03      -0.0027
     12 C18        13.0821    4.5912   10.1851 C.3         1 C03       0.0846
     13 O19        11.2641    3.1480   15.1222 O.3         1 C03      -0.2340
     14 C20        11.8323    1.8227   15.0743 C.3         1 C03       0.5447
     15 F21        12.1524    1.4660   16.3599 F           1 C03      -0.1402
     16 F22        12.9940    1.7741   14.3402 F           1 C03      -0.1402
     17 F23        10.9501    0.8819   14.5944 F           1 C03      -0.1402
     18 C24        14.0356    5.3343   11.0667 C.ar        1 C03      -0.0091
     19 C27        14.7710    4.6199   12.0464 C.ar        1 C03      -0.0287
     20 C28        15.6179    5.2727   12.9578 C.ar        1 C03       0.0876
     21 C29        15.8429    6.6560   12.8196 C.ar        1 C03      -0.0391
     22 C30        15.1653    7.3808   11.8262 C.ar        1 C03      -0.0631
     23 C31        14.2514    6.7360   10.9645 C.ar        1 C03       0.0319
     24 CL1        13.4670    7.7174    9.8245 Cl          1 C03      -0.0872
     25 O36        16.1692    4.5338   13.9709 O.3         1 C03      -0.3024
     26 C37        16.1341    5.0761   15.3155 C.3         1 C03       0.1302
     27 C38        17.0997    4.2043   16.1535 C.3         1 C03      -0.0222
     28 C42        14.7741    5.1588   15.9161 C.2         1 C03       0.0683
     29 O44        14.4915    4.7061   17.1573 O.co2       1 C03      -0.5660
     30 O45        13.8015    5.8550   15.2861 O.co2       1 C03      -0.5660
     31 N46         7.7410    5.3144    8.5631 N.2         1 C03      -0.1679
     32 O47         6.5356    5.7898    8.3680 O.3         1 C03      -0.1876
     33 C48         6.1569    6.4584    9.4747 C.ar        1 C03       0.1433
     34 C49         7.1922    6.3952   10.3910 C.ar        1 C03       0.0134
     35 C50         4.9571    7.1405    9.7604 C.ar        1 C03       0.0032
     36 C51         4.8132    7.7853   11.0190 C.ar        1 C03       0.0851
     37 C52         5.8859    7.7325   11.9373 C.ar        1 C03      -0.0395
     38 C53         7.0817    7.0504   11.6309 C.ar        1 C03      -0.0670
     39 O57         3.6974    8.4635   11.4624 O.3         1 C03      -0.3234
     40 C58         2.6024    8.7706   10.5861 C.3         1 C03       0.0592
     41 H1          8.7573    3.6937   14.6189 H           1 C03       0.0459
     42 H2          7.8391    4.5868   12.5673 H           1 C03       0.0504
     43 H3         12.5990    3.7249   12.9383 H           1 C03       0.0444
     44 H4         10.0227    5.9217    7.7077 H           1 C03       0.0449
     45 H5         11.2957    4.7007    7.6682 H           1 C03       0.0449
     46 H6         11.6651    6.3745    8.1199 H           1 C03       0.0449
     47 H7         13.3201    4.8749    9.1604 H           1 C03       0.0764
     48 H8         13.2603    3.5144   10.2358 H           1 C03       0.0764
     49 H9         14.6491    3.6124   12.1432 H           1 C03       0.0480
     50 H10        16.4802    7.1407   13.4531 H           1 C03       0.0487
     51 H11        15.3283    8.3907   11.7502 H           1 C03       0.0578
     52 H12        16.5529    6.0869   15.3029 H           1 C03       0.0818
     53 H13        17.1955    4.6020   17.1681 H           1 C03       0.0276
     54 H14        18.0912    4.1920   15.6951 H           1 C03       0.0276
     55 H15        16.7321    3.1756   16.2103 H           1 C03       0.0276
     56 H16         4.2125    7.1579    9.0651 H           1 C03       0.0476
     57 H17         5.8024    8.1961   12.8462 H           1 C03       0.0490
     58 H18         7.8516    7.0338   12.3010 H           1 C03       0.0582
     59 H19         1.8887    9.3784   11.1370 H           1 C03       0.0578
     60 H20         2.0992    7.8586   10.2602 H           1 C03       0.0578
     61 H21         2.9406    9.3331    9.7134 H           1 C03       0.0578
@<TRIPOS>BOND
     1     1     2  ar
     2     1     6  ar
     3     2     3  ar
     4     3     4  ar
     5     3     7   1
     6     4     5  ar
     7     4     9   1
     8     5     6  ar
     9     6    13   1
    10     7     8   2
    11     7    10   1
    12     8     9   1
    13     8    11   1
    14     9    12   1
    15    10    31   2
    16    10    34   1
    17    12    18   1
    18    13    14   1
    19    14    15   1
    20    14    16   1
    21    14    17   1
    22    18    19  ar
    23    18    23  ar
    24    19    20  ar
    25    20    21  ar
    26    20    25   1
    27    21    22  ar
    28    22    23  ar
    29    23    24   1
    30    25    26   1
    31    26    27   1
    32    26    28   1
    33    28    29  ar
    34    28    30  ar
    35    31    32   1
    36    32    33   1
    37    33    34  ar
    38    33    35  ar
    39    34    38  ar
    40    35    36  ar
    41    36    37  ar
    42    36    39   1
    43    37    38  ar
    44    39    40   1
    45     1    41   1
    46     2    42   1
    47     5    43   1
    48    11    44   1
    49    11    45   1
    50    11    46   1
    51    12    47   1
    52    12    48   1
    53    19    49   1
    54    21    50   1
    55    22    51   1
    56    26    52   1
    57    27    53   1
    58    27    54   1
    59    27    55   1
    60    35    56   1
    61    37    57   1
    62    38    58   1
    63    40    59   1
    64    40    60   1
    65    40    61   1
@<TRIPOS>SUBSTRUCTURE
     1  C03      1

