@<TRIPOS>MOLECULE
2p4y_ligand_031
    61    65
SMALL
GAST_HUCK
****
This file was generated by PARSER (from files_GN.cpp)

@<TRIPOS>ATOM
      1 C1         14.6705   12.2377    4.9265 C.ar        1 C03      -0.0494
      2 C2         14.7001   12.0348    6.3202 C.ar        1 C03      -0.0824
      3 C3         13.5880   12.4292    7.0865 C.ar        1 C03      -0.0320
      4 C4         12.4543   12.9830    6.4916 C.ar        1 C03       0.0592
      5 C5         12.4252   13.1805    5.0941 C.ar        1 C03      -0.0175
      6 C6         13.5349   12.8054    4.3083 C.ar        1 C03       0.0845
      7 C10        13.3474   12.3769    8.4520 C.2         1 C03      -0.0105
      8 C11        12.0700   12.9135    8.6608 C.2         1 C03       0.0574
      9 N12        11.5429   13.2762    7.4547 N.pl3       1 C03      -0.2466
     10 C13        14.2385   11.8404    9.3926 C.2         1 C03       0.0368
     11 C14        11.4161   13.0659    9.9819 C.3         1 C03      -0.0027
     12 C18        10.2282   13.8303    7.2055 C.3         1 C03       0.0846
     13 O19        13.5289   13.0660    2.9638 O.3         1 C03      -0.2340
     14 C20        13.0730   11.9889    2.1241 C.3         1 C03       0.5447
     15 F21        13.0904   12.4485    0.8326 F           1 C03      -0.1402
     16 F22        11.7838   11.6014    2.4043 F           1 C03      -0.1402
     17 F23        13.9025   10.8950    2.1832 F           1 C03      -0.1402
     18 C24        10.1763   15.0930    6.4010 C.ar        1 C03      -0.0091
     19 C27        11.2682   15.9954    6.4542 C.ar        1 C03      -0.0287
     20 C28        11.3530   17.0994    5.5845 C.ar        1 C03       0.0876
     21 C29        10.3093   17.3473    4.6771 C.ar        1 C03      -0.0391
     22 C30         9.1833   16.5087    4.6562 C.ar        1 C03      -0.0631
     23 C31         9.1138   15.3808    5.5017 C.ar        1 C03       0.0319
     24 CL1         7.7202   14.4219    5.3796 Cl          1 C03      -0.0872
     25 O36        12.5031   17.8426    5.5396 O.3         1 C03      -0.3024
     26 C37        12.6872   18.7931    6.6084 C.3         1 C03       0.1302
     27 C38        12.0203   20.1412    6.2435 C.3         1 C03      -0.0222
     28 C42        14.1447   18.8880    6.8210 C.2         1 C03       0.0683
     29 O44        14.8638   19.9773    6.4753 O.co2       1 C03      -0.5660
     30 O45        14.8188   17.8488    7.3606 O.co2       1 C03      -0.5660
     31 N46        15.3482   12.4488    9.8555 N.2         1 C03      -0.1679
     32 O47        16.0199   11.6323   10.6292 O.3         1 C03      -0.1876
     33 C48        15.3747   10.4472   10.6750 C.ar        1 C03       0.1433
     34 C49        14.2325   10.5477    9.8904 C.ar        1 C03       0.0134
     35 C50        15.7025    9.2457   11.3276 C.ar        1 C03       0.0032
     36 C51        14.8644    8.1225   11.1485 C.ar        1 C03       0.0851
     37 C52        13.6936    8.2323   10.3579 C.ar        1 C03      -0.0395
     38 C53        13.3715    9.4490    9.7217 C.ar        1 C03      -0.0670
     39 O57        15.1424    6.9460   11.7904 O.3         1 C03      -0.3234
     40 C58        16.0697    6.1127   11.0719 C.3         1 C03       0.0592
     41 H1         15.4802   11.9767    4.3618 H           1 C03       0.0459
     42 H2         15.5209   11.6210    6.7635 H           1 C03       0.0504
     43 H3         11.6131   13.6001    4.6418 H           1 C03       0.0444
     44 H4         12.0403   12.6873   10.7951 H           1 C03       0.0449
     45 H5         10.4702   12.5202    9.9930 H           1 C03       0.0449
     46 H6         11.2198   14.1234   10.1696 H           1 C03       0.0449
     47 H7          9.6883   14.0306    8.1309 H           1 C03       0.0764
     48 H8          9.6835   13.0369    6.6894 H           1 C03       0.0764
     49 H9         12.0472   15.8297    7.0962 H           1 C03       0.0480
     50 H10        10.3701   18.1332    4.0241 H           1 C03       0.0487
     51 H11         8.4254   16.7092    3.9995 H           1 C03       0.0578
     52 H12        12.2591   18.4447    7.5569 H           1 C03       0.0818
     53 H13        12.2260   20.8836    7.0156 H           1 C03       0.0276
     54 H14        10.9406   20.0137    6.1646 H           1 C03       0.0276
     55 H15        12.3997   20.5068    5.2886 H           1 C03       0.0276
     56 H16        16.5503    9.1836   11.8964 H           1 C03       0.0476
     57 H17        13.0793    7.4244   10.2423 H           1 C03       0.0490
     58 H18        12.5287    9.5324    9.1508 H           1 C03       0.0582
     59 H19        16.2351    5.2080   11.6569 H           1 C03       0.0578
     60 H20        17.0339    6.6105   10.9377 H           1 C03       0.0578
     61 H21        15.6712    5.8208   10.0963 H           1 C03       0.0578
@<TRIPOS>BOND
     1     1     2  ar
     2     1     6  ar
     3     2     3  ar
     4     3     4  ar
     5     3     7   1
     6     4     5  ar
     7     4     9   1
     8     5     6  ar
     9     6    13   1
    10     7     8   2
    11     7    10   1
    12     8     9   1
    13     8    11   1
    14     9    12   1
    15    10    31   2
    16    10    34   1
    17    12    18   1
    18    13    14   1
    19    14    15   1
    20    14    16   1
    21    14    17   1
    22    18    19  ar
    23    18    23  ar
    24    19    20  ar
    25    20    21  ar
    26    20    25   1
    27    21    22  ar
    28    22    23  ar
    29    23    24   1
    30    25    26   1
    31    26    27   1
    32    26    28   1
    33    28    29  ar
    34    28    30  ar
    35    31    32   1
    36    32    33   1
    37    33    34  ar
    38    33    35  ar
    39    34    38  ar
    40    35    36  ar
    41    36    37  ar
    42    36    39   1
    43    37    38  ar
    44    39    40   1
    45     1    41   1
    46     2    42   1
    47     5    43   1
    48    11    44   1
    49    11    45   1
    50    11    46   1
    51    12    47   1
    52    12    48   1
    53    19    49   1
    54    21    50   1
    55    22    51   1
    56    26    52   1
    57    27    53   1
    58    27    54   1
    59    27    55   1
    60    35    56   1
    61    37    57   1
    62    38    58   1
    63    40    59   1
    64    40    60   1
    65    40    61   1
@<TRIPOS>SUBSTRUCTURE
     1  C03      1

