@<TRIPOS>MOLECULE
2p4y_ligand_000
    61    65
SMALL
GAST_HUCK
****
This file was generated by PARSER (from files_GN.cpp)

@<TRIPOS>ATOM
      1 C1          6.8767    5.8712    8.9241 C.ar        1 C03      -0.0494
      2 C2          8.2406    6.0146    9.2537 C.ar        1 C03      -0.0824
      3 C3          8.6343    5.9446   10.6048 C.ar        1 C03      -0.0320
      4 C4          7.7009    5.6942   11.6127 C.ar        1 C03       0.0592
      5 C5          6.3304    5.6187   11.2807 C.ar        1 C03      -0.0175
      6 C6          5.9048    5.6923    9.9396 C.ar        1 C03       0.0845
      7 C10         9.8823    6.0731   11.2040 C.2         1 C03      -0.0105
      8 C11         9.6751    5.8537   12.5762 C.2         1 C03       0.0574
      9 N12         8.3525    5.5842   12.8014 N.pl3       1 C03      -0.2466
     10 C13        11.0671    6.4363   10.5167 C.2         1 C03       0.0368
     11 C14        10.7172    5.9890   13.6200 C.3         1 C03      -0.0027
     12 C18         7.7156    5.2951   14.0746 C.3         1 C03       0.0846
     13 O19         4.5428    5.5753    9.7509 O.3         1 C03      -0.2340
     14 C20         3.9135    5.6565    8.4611 C.3         1 C03       0.5447
     15 F21         2.5672    5.4383    8.6246 F           1 C03      -0.1402
     16 F22         4.3865    4.6919    7.6058 F           1 C03      -0.1402
     17 F23         4.0640    6.9067    7.9037 F           1 C03      -0.1402
     18 C24         7.8098    3.8624   14.5120 C.ar        1 C03      -0.0091
     19 C27         8.8779    3.4769   15.3637 C.ar        1 C03      -0.0287
     20 C28         9.0279    2.1439   15.8015 C.ar        1 C03       0.0876
     21 C29         8.0425    1.1947   15.4850 C.ar        1 C03      -0.0391
     22 C30         6.9570    1.5548   14.6788 C.ar        1 C03      -0.0631
     23 C31         6.8416    2.8674   14.1803 C.ar        1 C03       0.0319
     24 CL1         5.4761    3.1570   13.2184 Cl          1 C03      -0.0872
     25 O36        10.1064    1.7442   16.5428 O.3         1 C03      -0.3024
     26 C37        11.3703    1.4884   15.8718 C.3         1 C03       0.1302
     27 C38        12.3108    2.6690   16.2069 C.3         1 C03      -0.0222
     28 C42        11.3530    1.1586   14.4208 C.2         1 C03       0.0683
     29 O44        12.4052    1.4282   13.6079 O.co2       1 C03      -0.5660
     30 O45        10.2153    0.7322   13.8335 O.co2       1 C03      -0.5660
     31 N46        11.1311    7.4132    9.5883 N.2         1 C03      -0.1679
     32 O47        12.3508    7.5501    9.1306 O.3         1 C03      -0.1876
     33 C48        13.1410    6.6421    9.7447 C.ar        1 C03       0.1433
     34 C49        12.3499    5.9037   10.6193 C.ar        1 C03       0.0134
     35 C50        14.5136    6.3813    9.5941 C.ar        1 C03       0.0032
     36 C51        15.0938    5.3416   10.3530 C.ar        1 C03       0.0851
     37 C52        14.2836    4.5558   11.2093 C.ar        1 C03      -0.0395
     38 C53        12.9073    4.8363   11.3474 C.ar        1 C03      -0.0670
     39 O57        16.4262    5.0656   10.2164 O.3         1 C03      -0.3234
     40 C58        17.1925    5.3592   11.3988 C.3         1 C03       0.0592
     41 H1          6.6009    5.9043    7.9437 H           1 C03       0.0459
     42 H2          8.9333    6.1398    8.5160 H           1 C03       0.0504
     43 H3          5.6305    5.5281   12.0163 H           1 C03       0.0444
     44 H4         11.6111    6.4757   13.2393 H           1 C03       0.0449
     45 H5         10.9997    5.0006   13.9754 H           1 C03       0.0449
     46 H6         10.3507    6.5919   14.4517 H           1 C03       0.0449
     47 H7          6.6677    5.5934   14.0499 H           1 C03       0.0764
     48 H8          8.1402    5.9441   14.8406 H           1 C03       0.0764
     49 H9          9.5564    4.1665   15.6847 H           1 C03       0.0480
     50 H10         8.1304    0.2368   15.8260 H           1 C03       0.0487
     51 H11         6.2539    0.8459   14.4560 H           1 C03       0.0578
     52 H12        11.7917    0.6115   16.3632 H           1 C03       0.0818
     53 H13        13.3188    2.4717   15.8311 H           1 C03       0.0276
     54 H14        12.3627    2.8030   17.2863 H           1 C03       0.0276
     55 H15        11.9386    3.5936   15.7619 H           1 C03       0.0276
     56 H16        15.0736    6.9375    8.9483 H           1 C03       0.0476
     57 H17        14.6939    3.7814   11.7362 H           1 C03       0.0490
     58 H18        12.3215    4.2648   11.9612 H           1 C03       0.0582
     59 H19        18.2419    5.1528   11.1864 H           1 C03       0.0578
     60 H20        16.8872    4.7280   12.2373 H           1 C03       0.0578
     61 H21        17.1033    6.4107   11.6841 H           1 C03       0.0578
@<TRIPOS>BOND
     1     1     2  ar
     2     1     6  ar
     3     2     3  ar
     4     3     4  ar
     5     3     7   1
     6     4     5  ar
     7     4     9   1
     8     5     6  ar
     9     6    13   1
    10     7     8   2
    11     7    10   1
    12     8     9   1
    13     8    11   1
    14     9    12   1
    15    10    31   2
    16    10    34   1
    17    12    18   1
    18    13    14   1
    19    14    15   1
    20    14    16   1
    21    14    17   1
    22    18    19  ar
    23    18    23  ar
    24    19    20  ar
    25    20    21  ar
    26    20    25   1
    27    21    22  ar
    28    22    23  ar
    29    23    24   1
    30    25    26   1
    31    26    27   1
    32    26    28   1
    33    28    29  ar
    34    28    30  ar
    35    31    32   1
    36    32    33   1
    37    33    34  ar
    38    33    35  ar
    39    34    38  ar
    40    35    36  ar
    41    36    37  ar
    42    36    39   1
    43    37    38  ar
    44    39    40   1
    45     1    41   1
    46     2    42   1
    47     5    43   1
    48    11    44   1
    49    11    45   1
    50    11    46   1
    51    12    47   1
    52    12    48   1
    53    19    49   1
    54    21    50   1
    55    22    51   1
    56    26    52   1
    57    27    53   1
    58    27    54   1
    59    27    55   1
    60    35    56   1
    61    37    57   1
    62    38    58   1
    63    40    59   1
    64    40    60   1
    65    40    61   1
@<TRIPOS>SUBSTRUCTURE
     1  C03      1

