@<TRIPOS>MOLECULE
2p4y_ligand_001
    61    65
SMALL
GAST_HUCK
****
This file was generated by PARSER (from files_GN.cpp)

@<TRIPOS>ATOM
      1 C1         12.4850   16.8273    6.9471 C.ar        1 C03      -0.0494
      2 C2         11.7631   15.6552    7.2619 C.ar        1 C03      -0.0824
      3 C3         12.4598   14.4515    7.4841 C.ar        1 C03      -0.0320
      4 C4         13.8545   14.4314    7.4396 C.ar        1 C03       0.0592
      5 C5         14.5767   15.5916    7.0887 C.ar        1 C03      -0.0175
      6 C6         13.8965   16.7983    6.8363 C.ar        1 C03       0.0845
      7 C10        12.0372   13.1747    7.8361 C.2         1 C03      -0.0105
      8 C11        13.2001   12.4185    8.0578 C.2         1 C03       0.0574
      9 N12        14.2905   13.2084    7.8417 N.pl3       1 C03      -0.2466
     10 C13        10.6965   12.7549    7.9805 C.2         1 C03       0.0368
     11 C14        13.2430   10.9776    8.4009 C.3         1 C03      -0.0027
     12 C18        15.6804   12.8472    8.0164 C.3         1 C03       0.0846
     13 O19        14.6654   17.9189    6.5901 O.3         1 C03      -0.2340
     14 C20        14.3950   18.6840    5.3982 C.3         1 C03       0.5447
     15 F21        15.4579   19.5194    5.2005 F           1 C03      -0.1402
     16 F22        13.2795   19.4812    5.5403 F           1 C03      -0.1402
     17 F23        14.2644   17.9069    4.2687 F           1 C03      -0.1402
     18 C24        16.4612   13.5210    9.1037 C.ar        1 C03      -0.0091
     19 C27        15.8818   14.4946    9.9568 C.ar        1 C03      -0.0287
     20 C28        16.6310   15.1720   10.9405 C.ar        1 C03       0.0876
     21 C29        17.9960   14.8644   11.0867 C.ar        1 C03      -0.0391
     22 C30        18.5763   13.8639   10.2899 C.ar        1 C03      -0.0631
     23 C31        17.8283   13.1947    9.3065 C.ar        1 C03       0.0319
     24 CL1        18.6509   12.0198    8.3927 Cl          1 C03      -0.0872
     25 O36        16.0861   16.2260   11.6211 O.3         1 C03      -0.3024
     26 C37        15.3545   16.0104   12.8540 C.3         1 C03       0.1302
     27 C38        16.2596   15.5358   14.0210 C.3         1 C03      -0.0222
     28 C42        14.1553   15.1547   12.7183 C.2         1 C03       0.0683
     29 O44        14.2689   13.8301   12.4805 O.co2       1 C03      -0.5660
     30 O45        12.9207   15.7207   12.6065 O.co2       1 C03      -0.5660
     31 N46        10.2285   12.0442    9.0264 N.2         1 C03      -0.1679
     32 O47         8.9450   11.8245    8.8978 O.3         1 C03      -0.1876
     33 C48         8.5230   12.3975    7.7488 C.ar        1 C03       0.1433
     34 C49         9.6193   12.9825    7.1308 C.ar        1 C03       0.0134
     35 C50         7.2445   12.4462    7.1691 C.ar        1 C03       0.0032
     36 C51         7.0863   13.1073    5.9309 C.ar        1 C03       0.0851
     37 C52         8.2104   13.6695    5.2779 C.ar        1 C03      -0.0395
     38 C53         9.4868   13.6058    5.8745 C.ar        1 C03      -0.0670
     39 O57         5.8585   13.1501    5.3320 O.3         1 C03      -0.3234
     40 C58         5.0874   14.3115    5.6934 C.3         1 C03       0.0592
     41 H1         11.9739   17.7052    6.8227 H           1 C03       0.0459
     42 H2         10.7484   15.6989    7.3620 H           1 C03       0.0504
     43 H3         15.5970   15.5615    7.0376 H           1 C03       0.0444
     44 H4         12.2530   10.5371    8.4846 H           1 C03       0.0449
     45 H5         13.7602   10.8399    9.3492 H           1 C03       0.0449
     46 H6         13.7769   10.4427    7.6159 H           1 C03       0.0449
     47 H7         16.1837   13.0463    7.0686 H           1 C03       0.0764
     48 H8         15.7655   11.7762    8.1976 H           1 C03       0.0764
     49 H9         14.9021   14.7555    9.8605 H           1 C03       0.0480
     50 H10        18.5663   15.3793   11.7594 H           1 C03       0.0487
     51 H11        19.5659   13.6444   10.4305 H           1 C03       0.0578
     52 H12        15.0081   17.0075   13.1447 H           1 C03       0.0818
     53 H13        15.7064   15.5302   14.9623 H           1 C03       0.0276
     54 H14        17.1132   16.2042   14.1366 H           1 C03       0.0276
     55 H15        16.6292   14.5302   13.8344 H           1 C03       0.0276
     56 H16         6.4461   12.0163    7.6350 H           1 C03       0.0476
     57 H17         8.1014   14.1175    4.3702 H           1 C03       0.0490
     58 H18        10.2963   13.9981    5.3990 H           1 C03       0.0582
     59 H19         4.1249   14.2528    5.1838 H           1 C03       0.0578
     60 H20         5.5857   15.2323    5.3776 H           1 C03       0.0578
     61 H21         4.9011   14.3492    6.7704 H           1 C03       0.0578
@<TRIPOS>BOND
     1     1     2  ar
     2     1     6  ar
     3     2     3  ar
     4     3     4  ar
     5     3     7   1
     6     4     5  ar
     7     4     9   1
     8     5     6  ar
     9     6    13   1
    10     7     8   2
    11     7    10   1
    12     8     9   1
    13     8    11   1
    14     9    12   1
    15    10    31   2
    16    10    34   1
    17    12    18   1
    18    13    14   1
    19    14    15   1
    20    14    16   1
    21    14    17   1
    22    18    19  ar
    23    18    23  ar
    24    19    20  ar
    25    20    21  ar
    26    20    25   1
    27    21    22  ar
    28    22    23  ar
    29    23    24   1
    30    25    26   1
    31    26    27   1
    32    26    28   1
    33    28    29  ar
    34    28    30  ar
    35    31    32   1
    36    32    33   1
    37    33    34  ar
    38    33    35  ar
    39    34    38  ar
    40    35    36  ar
    41    36    37  ar
    42    36    39   1
    43    37    38  ar
    44    39    40   1
    45     1    41   1
    46     2    42   1
    47     5    43   1
    48    11    44   1
    49    11    45   1
    50    11    46   1
    51    12    47   1
    52    12    48   1
    53    19    49   1
    54    21    50   1
    55    22    51   1
    56    26    52   1
    57    27    53   1
    58    27    54   1
    59    27    55   1
    60    35    56   1
    61    37    57   1
    62    38    58   1
    63    40    59   1
    64    40    60   1
    65    40    61   1
@<TRIPOS>SUBSTRUCTURE
     1  C03      1

