@<TRIPOS>MOLECULE
2p4y_ligand_077
    61    65
SMALL
GAST_HUCK
****
This file was generated by PARSER (from files_GN.cpp)

@<TRIPOS>ATOM
      1 C1         11.1535    9.1406    9.3948 C.ar        1 C03      -0.0494
      2 C2         12.2411    8.4703    9.9849 C.ar        1 C03      -0.0824
      3 C3         13.5362    9.0186    9.8585 C.ar        1 C03      -0.0320
      4 C4         13.7374   10.2290    9.1823 C.ar        1 C03       0.0592
      5 C5         12.6512   10.8919    8.5729 C.ar        1 C03      -0.0175
      6 C6         11.3443   10.3620    8.7076 C.ar        1 C03       0.0845
      7 C10        14.7669    8.6152   10.3690 C.2         1 C03      -0.0105
      8 C11        15.6913    9.5978    9.9725 C.2         1 C03       0.0574
      9 N12        15.0437   10.5844    9.2963 N.pl3       1 C03      -0.2466
     10 C13        14.9955    7.5455   11.2650 C.2         1 C03       0.0368
     11 C14        17.1490    9.5607   10.2429 C.3         1 C03      -0.0027
     12 C18        15.6186   11.8289    8.8281 C.3         1 C03       0.0846
     13 O19        10.2233   10.9403    8.1588 O.3         1 C03      -0.2340
     14 C20         9.9360   12.3232    8.4598 C.3         1 C03       0.5447
     15 F21         8.6125   12.5360    8.1762 F           1 C03      -0.1402
     16 F22        10.6774   13.1561    7.6501 F           1 C03      -0.1402
     17 F23        10.1409   12.6597    9.7819 F           1 C03      -0.1402
     18 C24        14.9235   13.0959    9.2266 C.ar        1 C03      -0.0091
     19 C27        14.9220   14.1666    8.2962 C.ar        1 C03      -0.0287
     20 C28        14.3392   15.4111    8.5987 C.ar        1 C03       0.0876
     21 C29        13.7650   15.6143    9.8649 C.ar        1 C03      -0.0391
     22 C30        13.7722   14.5821   10.8141 C.ar        1 C03      -0.0631
     23 C31        14.3602   13.3343   10.5142 C.ar        1 C03       0.0319
     24 CL1        14.3614   12.2037   11.7780 Cl          1 C03      -0.0872
     25 O36        14.4578   16.4539    7.7181 O.3         1 C03      -0.3024
     26 C37        13.3130   16.7507    6.8867 C.3         1 C03       0.1302
     27 C38        13.1050   15.6743    5.7898 C.3         1 C03      -0.0222
     28 C42        13.5136   18.0808    6.2676 C.2         1 C03       0.0683
     29 O44        12.5261   18.6524    5.5403 O.co2       1 C03      -0.5660
     30 O45        14.6516   18.7879    6.4576 O.co2       1 C03      -0.5660
     31 N46        15.7867    7.6677   12.3508 N.2         1 C03      -0.1679
     32 O47        15.7789    6.5717   13.0634 O.3         1 C03      -0.1876
     33 C48        14.9629    5.6807   12.4594 C.ar        1 C03       0.1433
     34 C49        14.4564    6.2629   11.2981 C.ar        1 C03       0.0134
     35 C50        14.6035    4.3836   12.8522 C.ar        1 C03       0.0032
     36 C51        13.6833    3.6593   12.0550 C.ar        1 C03       0.0851
     37 C52        13.2035    4.2275   10.8488 C.ar        1 C03      -0.0395
     38 C53        13.5882    5.5286   10.4597 C.ar        1 C03      -0.0670
     39 O57        13.2908    2.3985   12.4228 O.3         1 C03      -0.3234
     40 C58        12.3259    2.3764   13.4893 C.3         1 C03       0.0592
     41 H1         10.2150    8.7468    9.5026 H           1 C03       0.0459
     42 H2         12.0845    7.6127   10.5165 H           1 C03       0.0504
     43 H3         12.7948   11.7596    8.0508 H           1 C03       0.0444
     44 H4         17.4607    8.6101   10.6731 H           1 C03       0.0449
     45 H5         17.4141   10.3629   10.9347 H           1 C03       0.0449
     46 H6         17.6996    9.6896    9.3096 H           1 C03       0.0449
     47 H7         15.6674   11.7478    7.7376 H           1 C03       0.0764
     48 H8         16.6450   11.9457    9.1715 H           1 C03       0.0764
     49 H9         15.3720   14.0576    7.3845 H           1 C03       0.0480
     50 H10        13.3680   16.5259   10.1075 H           1 C03       0.0487
     51 H11        13.3667   14.7580   11.7378 H           1 C03       0.0578
     52 H12        12.4078   16.8191    7.5020 H           1 C03       0.0818
     53 H13        12.2617   15.9319    5.1462 H           1 C03       0.0276
     54 H14        12.8940   14.7081    6.2484 H           1 C03       0.0276
     55 H15        14.0030   15.5812    5.1772 H           1 C03       0.0276
     56 H16        14.9812    3.9893   13.7145 H           1 C03       0.0476
     57 H17        12.5661    3.6934   10.2565 H           1 C03       0.0490
     58 H18        13.2335    5.9426    9.5901 H           1 C03       0.0582
     59 H19        12.0814    1.3344   13.7000 H           1 C03       0.0578
     60 H20        11.4073    2.8947   13.2033 H           1 C03       0.0578
     61 H21        12.7279    2.8216   14.4014 H           1 C03       0.0578
@<TRIPOS>BOND
     1     1     2  ar
     2     1     6  ar
     3     2     3  ar
     4     3     4  ar
     5     3     7   1
     6     4     5  ar
     7     4     9   1
     8     5     6  ar
     9     6    13   1
    10     7     8   2
    11     7    10   1
    12     8     9   1
    13     8    11   1
    14     9    12   1
    15    10    31   2
    16    10    34   1
    17    12    18   1
    18    13    14   1
    19    14    15   1
    20    14    16   1
    21    14    17   1
    22    18    19  ar
    23    18    23  ar
    24    19    20  ar
    25    20    21  ar
    26    20    25   1
    27    21    22  ar
    28    22    23  ar
    29    23    24   1
    30    25    26   1
    31    26    27   1
    32    26    28   1
    33    28    29  ar
    34    28    30  ar
    35    31    32   1
    36    32    33   1
    37    33    34  ar
    38    33    35  ar
    39    34    38  ar
    40    35    36  ar
    41    36    37  ar
    42    36    39   1
    43    37    38  ar
    44    39    40   1
    45     1    41   1
    46     2    42   1
    47     5    43   1
    48    11    44   1
    49    11    45   1
    50    11    46   1
    51    12    47   1
    52    12    48   1
    53    19    49   1
    54    21    50   1
    55    22    51   1
    56    26    52   1
    57    27    53   1
    58    27    54   1
    59    27    55   1
    60    35    56   1
    61    37    57   1
    62    38    58   1
    63    40    59   1
    64    40    60   1
    65    40    61   1
@<TRIPOS>SUBSTRUCTURE
     1  C03      1

