@<TRIPOS>MOLECULE
2p4y_ligand_065
    61    65
SMALL
GAST_HUCK
****
This file was generated by PARSER (from files_GN.cpp)

@<TRIPOS>ATOM
      1 C1          3.3553    8.3526   10.1889 C.ar        1 C03      -0.0494
      2 C2          4.0826    8.6797   11.3532 C.ar        1 C03      -0.0824
      3 C3          5.1343    7.8338   11.7666 C.ar        1 C03      -0.0320
      4 C4          5.5074    6.7321   10.9906 C.ar        1 C03       0.0592
      5 C5          4.7755    6.4063    9.8308 C.ar        1 C03      -0.0175
      6 C6          3.7039    7.2276    9.4117 C.ar        1 C03       0.0845
      7 C10         5.9566    7.8426   12.8905 C.2         1 C03      -0.0105
      8 C11         6.8354    6.7523   12.7440 C.2         1 C03       0.0574
      9 N12         6.5759    6.1155   11.5618 N.pl3       1 C03      -0.2466
     10 C13         5.8796    8.7330   13.9881 C.2         1 C03       0.0368
     11 C14         7.8068    6.3032   13.7757 C.3         1 C03      -0.0027
     12 C18         7.1786    4.9265   10.9841 C.3         1 C03       0.0846
     13 O19         2.9350    6.9403    8.3124 O.3         1 C03      -0.2340
     14 C20         3.5832    6.8477    7.0262 C.3         1 C03       0.5447
     15 F21         2.6062    6.9189    6.0665 F           1 C03      -0.1402
     16 F22         4.2247    5.6452    6.8751 F           1 C03      -0.1402
     17 F23         4.4710    7.8661    6.7701 F           1 C03      -0.1402
     18 C24         8.5896    4.5964   11.3380 C.ar        1 C03      -0.0091
     19 C27         9.6257    5.3645   10.7533 C.ar        1 C03      -0.0287
     20 C28        10.9853    5.1369   11.0552 C.ar        1 C03       0.0876
     21 C29        11.2947    4.1379   12.0142 C.ar        1 C03      -0.0391
     22 C30        10.2899    3.3536   12.5846 C.ar        1 C03      -0.0631
     23 C31         8.9383    3.5524   12.2395 C.ar        1 C03       0.0319
     24 CL1         7.8039    2.5347   12.9867 Cl          1 C03      -0.0872
     25 O36        11.8925    5.8938   10.3491 O.3         1 C03      -0.3024
     26 C37        13.2958    5.9853   10.6884 C.3         1 C03       0.1302
     27 C38        13.8575    7.2339    9.9662 C.3         1 C03      -0.0222
     28 C42        14.0725    4.7831   10.3069 C.2         1 C03       0.0683
     29 O44        15.3881    4.7065   10.5927 O.co2       1 C03      -0.5660
     30 O45        13.4793    3.6993    9.7506 O.co2       1 C03      -0.5660
     31 N46         6.9595    9.2745   14.5759 N.2         1 C03      -0.1679
     32 O47         6.6165   10.0322   15.5880 O.3         1 C03      -0.1876
     33 C48         5.2742   10.0194   15.6881 C.ar        1 C03       0.1433
     34 C49         4.7634    9.2015   14.6857 C.ar        1 C03       0.0134
     35 C50         4.4353   10.6682   16.6136 C.ar        1 C03       0.0032
     36 C51         3.0408   10.4961   16.4948 C.ar        1 C03       0.0851
     37 C52         2.5143    9.6684   15.4717 C.ar        1 C03      -0.0395
     38 C53         3.3777    8.9790   14.5914 C.ar        1 C03      -0.0670
     39 O57         2.2008   11.1577   17.3485 O.3         1 C03      -0.3234
     40 C58         1.7511   10.3379   18.4423 C.3         1 C03       0.0592
     41 H1          2.5661    8.9338    9.9035 H           1 C03       0.0459
     42 H2          3.8466    9.5208   11.8913 H           1 C03       0.0504
     43 H3          5.0007    5.5659    9.2998 H           1 C03       0.0444
     44 H4          7.7327    6.8555   14.7066 H           1 C03       0.0449
     45 H5          8.8248    6.4166   13.4042 H           1 C03       0.0449
     46 H6          7.6274    5.2577   14.0106 H           1 C03       0.0449
     47 H7          7.1824    5.0189    9.8940 H           1 C03       0.0764
     48 H8          6.5043    4.0983   11.1995 H           1 C03       0.0764
     49 H9          9.3913    6.1009   10.0792 H           1 C03       0.0480
     50 H10        12.2619    3.9514   12.2848 H           1 C03       0.0487
     51 H11        10.5493    2.6237   13.2608 H           1 C03       0.0578
     52 H12        13.4042    6.1526   11.7632 H           1 C03       0.0818
     53 H13        14.8693    7.4522   10.3143 H           1 C03       0.0276
     54 H14        13.2278    8.1006   10.1762 H           1 C03       0.0276
     55 H15        13.8815    7.0732    8.8850 H           1 C03       0.0276
     56 H16         4.8342   11.2517   17.3530 H           1 C03       0.0476
     57 H17         1.5016    9.5627   15.3857 H           1 C03       0.0490
     58 H18         2.9970    8.3368   13.8900 H           1 C03       0.0582
     59 H19         1.1016   10.9395   19.0787 H           1 C03       0.0578
     60 H20         2.5922    9.9866   19.0446 H           1 C03       0.0578
     61 H21         1.1750    9.4791   18.0869 H           1 C03       0.0578
@<TRIPOS>BOND
     1     1     2  ar
     2     1     6  ar
     3     2     3  ar
     4     3     4  ar
     5     3     7   1
     6     4     5  ar
     7     4     9   1
     8     5     6  ar
     9     6    13   1
    10     7     8   2
    11     7    10   1
    12     8     9   1
    13     8    11   1
    14     9    12   1
    15    10    31   2
    16    10    34   1
    17    12    18   1
    18    13    14   1
    19    14    15   1
    20    14    16   1
    21    14    17   1
    22    18    19  ar
    23    18    23  ar
    24    19    20  ar
    25    20    21  ar
    26    20    25   1
    27    21    22  ar
    28    22    23  ar
    29    23    24   1
    30    25    26   1
    31    26    27   1
    32    26    28   1
    33    28    29  ar
    34    28    30  ar
    35    31    32   1
    36    32    33   1
    37    33    34  ar
    38    33    35  ar
    39    34    38  ar
    40    35    36  ar
    41    36    37  ar
    42    36    39   1
    43    37    38  ar
    44    39    40   1
    45     1    41   1
    46     2    42   1
    47     5    43   1
    48    11    44   1
    49    11    45   1
    50    11    46   1
    51    12    47   1
    52    12    48   1
    53    19    49   1
    54    21    50   1
    55    22    51   1
    56    26    52   1
    57    27    53   1
    58    27    54   1
    59    27    55   1
    60    35    56   1
    61    37    57   1
    62    38    58   1
    63    40    59   1
    64    40    60   1
    65    40    61   1
@<TRIPOS>SUBSTRUCTURE
     1  C03      1

