@<TRIPOS>MOLECULE
2p4y_ligand_095
    61    65
SMALL
GAST_HUCK
****
This file was generated by PARSER (from files_GN.cpp)

@<TRIPOS>ATOM
      1 C1          9.8089   13.2682    8.5246 C.ar        1 C03      -0.0494
      2 C2         10.7508   12.2675    8.8269 C.ar        1 C03      -0.0824
      3 C3         12.1055   12.6181    9.0257 C.ar        1 C03      -0.0320
      4 C4         12.5129   13.9526    8.9292 C.ar        1 C03       0.0592
      5 C5         11.5629   14.9539    8.6177 C.ar        1 C03      -0.0175
      6 C6         10.2073   14.6203    8.4403 C.ar        1 C03       0.0845
      7 C10        13.2363   11.8483    9.3007 C.2         1 C03      -0.0105
      8 C11        14.3150   12.7558    9.2768 C.2         1 C03       0.0574
      9 N12        13.8476   14.0292    9.1406 N.pl3       1 C03      -0.2466
     10 C13        13.2517   10.4370    9.4942 C.2         1 C03       0.0368
     11 C14        15.7507   12.3955    9.1964 C.3         1 C03      -0.0027
     12 C18        14.6666   15.2236    9.0885 C.3         1 C03       0.0846
     13 O19         9.3068   15.6009    8.1321 O.3         1 C03      -0.2340
     14 C20         8.6443   16.1949    9.2675 C.3         1 C03       0.5447
     15 F21         7.8340   17.1974    8.7920 F           1 C03      -0.1402
     16 F22         9.5157   16.7648   10.1711 F           1 C03      -0.1402
     17 F23         7.8387   15.2906    9.9256 F           1 C03      -0.1402
     18 C24        14.2233   16.3969    9.9056 C.ar        1 C03      -0.0091
     19 C27        14.0941   17.6579    9.2791 C.ar        1 C03      -0.0287
     20 C28        13.6051   18.7803    9.9764 C.ar        1 C03       0.0876
     21 C29        13.3282   18.6708   11.3508 C.ar        1 C03      -0.0391
     22 C30        13.4678   17.4372   12.0033 C.ar        1 C03      -0.0631
     23 C31        13.9057   16.2964   11.2921 C.ar        1 C03       0.0319
     24 CL1        14.0361   14.8368   12.1591 Cl          1 C03      -0.0872
     25 O36        13.4506   19.9819    9.3275 O.3         1 C03      -0.3024
     26 C37        12.2111   20.2038    8.6053 C.3         1 C03       0.1302
     27 C38        10.9674   20.2177    9.5288 C.3         1 C03      -0.0222
     28 C42        12.0673   19.3263    7.4177 C.2         1 C03       0.0683
     29 O44        11.0557   18.4361    7.2854 O.co2       1 C03      -0.5660
     30 O45        12.9825   19.3904    6.4222 O.co2       1 C03      -0.5660
     31 N46        12.3082    9.6214    8.9801 N.2         1 C03      -0.1679
     32 O47        12.5210    8.3676    9.2993 O.3         1 C03      -0.1876
     33 C48        13.6337    8.3150   10.0594 C.ar        1 C03       0.1433
     34 C49        14.1207    9.6126   10.2166 C.ar        1 C03       0.0134
     35 C50        14.2618    7.2009   10.6359 C.ar        1 C03       0.0032
     36 C51        15.4385    7.4028   11.3895 C.ar        1 C03       0.0851
     37 C52        15.9215    8.7234   11.5817 C.ar        1 C03      -0.0395
     38 C53        15.2607    9.8384   11.0093 C.ar        1 C03      -0.0670
     39 O57        16.0954    6.3578   11.9808 O.3         1 C03      -0.3234
     40 C58        17.0022    5.6334   11.1187 C.3         1 C03       0.0592
     41 H1          8.8310   13.0166    8.3641 H           1 C03       0.0459
     42 H2         10.4398   11.2974    8.8785 H           1 C03       0.0504
     43 H3         11.8371   15.9271    8.5095 H           1 C03       0.0444
     44 H4         15.8970   11.3279    9.0443 H           1 C03       0.0449
     45 H5         16.2707   12.6863   10.1029 H           1 C03       0.0449
     46 H6         16.2089   12.9271    8.3542 H           1 C03       0.0449
     47 H7         14.7548   15.4945    8.0327 H           1 C03       0.0764
     48 H8         15.6809   15.0057    9.4347 H           1 C03       0.0764
     49 H9         14.3242   17.7641    8.2933 H           1 C03       0.0480
     50 H10        13.0166   19.4884   11.8765 H           1 C03       0.0487
     51 H11        13.2524   17.3713   12.9990 H           1 C03       0.0578
     52 H12        12.2961   21.2182    8.2053 H           1 C03       0.0818
     53 H13        10.0790   20.5140    8.9731 H           1 C03       0.0276
     54 H14        11.1195   20.9279   10.3428 H           1 C03       0.0276
     55 H15        10.7958   19.2280    9.9613 H           1 C03       0.0276
     56 H16        13.8864    6.2647   10.4969 H           1 C03       0.0476
     57 H17        16.7633    8.8759   12.1363 H           1 C03       0.0490
     58 H18        15.6090   10.7806   11.1499 H           1 C03       0.0582
     59 H19        17.5818    4.9342   11.7240 H           1 C03       0.0578
     60 H20        17.7024    6.3110   10.6183 H           1 C03       0.0578
     61 H21        16.4551    5.0583   10.3636 H           1 C03       0.0578
@<TRIPOS>BOND
     1     1     2  ar
     2     1     6  ar
     3     2     3  ar
     4     3     4  ar
     5     3     7   1
     6     4     5  ar
     7     4     9   1
     8     5     6  ar
     9     6    13   1
    10     7     8   2
    11     7    10   1
    12     8     9   1
    13     8    11   1
    14     9    12   1
    15    10    31   2
    16    10    34   1
    17    12    18   1
    18    13    14   1
    19    14    15   1
    20    14    16   1
    21    14    17   1
    22    18    19  ar
    23    18    23  ar
    24    19    20  ar
    25    20    21  ar
    26    20    25   1
    27    21    22  ar
    28    22    23  ar
    29    23    24   1
    30    25    26   1
    31    26    27   1
    32    26    28   1
    33    28    29  ar
    34    28    30  ar
    35    31    32   1
    36    32    33   1
    37    33    34  ar
    38    33    35  ar
    39    34    38  ar
    40    35    36  ar
    41    36    37  ar
    42    36    39   1
    43    37    38  ar
    44    39    40   1
    45     1    41   1
    46     2    42   1
    47     5    43   1
    48    11    44   1
    49    11    45   1
    50    11    46   1
    51    12    47   1
    52    12    48   1
    53    19    49   1
    54    21    50   1
    55    22    51   1
    56    26    52   1
    57    27    53   1
    58    27    54   1
    59    27    55   1
    60    35    56   1
    61    37    57   1
    62    38    58   1
    63    40    59   1
    64    40    60   1
    65    40    61   1
@<TRIPOS>SUBSTRUCTURE
     1  C03      1

