@<TRIPOS>MOLECULE
2p4y_ligand_050
    61    65
SMALL
GAST_HUCK
****
This file was generated by PARSER (from files_GN.cpp)

@<TRIPOS>ATOM
      1 C1         10.4708   13.8008    2.9170 C.ar        1 C03      -0.0494
      2 C2          9.8679   13.9480    4.1814 C.ar        1 C03      -0.0824
      3 C3         10.5813   14.5998    5.2080 C.ar        1 C03      -0.0320
      4 C4         11.8784   15.0695    4.9935 C.ar        1 C03       0.0592
      5 C5         12.4865   14.9138    3.7305 C.ar        1 C03      -0.0175
      6 C6         11.7701   14.3013    2.6806 C.ar        1 C03       0.0845
      7 C10        10.2556   14.8720    6.5339 C.2         1 C03      -0.0105
      8 C11        11.3621   15.5419    7.0840 C.2         1 C03       0.0574
      9 N12        12.3395   15.6291    6.1385 N.pl3       1 C03      -0.2466
     10 C13         9.0477   14.4977    7.1550 C.2         1 C03       0.0368
     11 C14        11.4544   16.0928    8.4576 C.3         1 C03      -0.0027
     12 C18        13.6672   16.1820    6.3003 C.3         1 C03       0.0846
     13 O19        12.3641   14.1383    1.4572 O.3         1 C03      -0.2340
     14 C20        12.1263   15.1991    0.5103 C.3         1 C03       0.5447
     15 F21        12.8659   14.9183   -0.6093 F           1 C03      -0.1402
     16 F22        12.5258   16.4349    0.9667 F           1 C03      -0.1402
     17 F23        10.8086   15.2607    0.1235 F           1 C03      -0.1402
     18 C24        14.7618   15.1673    6.4469 C.ar        1 C03      -0.0091
     19 C27        14.5040   13.9405    7.1024 C.ar        1 C03      -0.0287
     20 C28        15.5192   12.9919    7.3264 C.ar        1 C03       0.0876
     21 C29        16.8250   13.2595    6.8846 C.ar        1 C03      -0.0391
     22 C30        17.1136   14.4775    6.2483 C.ar        1 C03      -0.0631
     23 C31        16.0986   15.4330    6.0323 C.ar        1 C03       0.0319
     24 CL1        16.5684   16.8774    5.2726 Cl          1 C03      -0.0872
     25 O36        15.2347   11.7841    7.9021 O.3         1 C03      -0.3024
     26 C37        14.8470   11.7964    9.2948 C.3         1 C03       0.1302
     27 C38        15.9306   11.0980   10.1470 C.3         1 C03      -0.0222
     28 C42        13.5540   11.0950    9.3859 C.2         1 C03       0.0683
     29 O44        13.3741    9.8800    8.8183 O.co2       1 C03      -0.5660
     30 O45        12.4664   11.7274    9.8799 O.co2       1 C03      -0.5660
     31 N46         7.8290   14.6147    6.5882 N.2         1 C03      -0.1679
     32 O47         6.9010   14.1510    7.3874 O.3         1 C03      -0.1876
     33 C48         7.4932   13.6966    8.5135 C.ar        1 C03       0.1433
     34 C49         8.8619   13.8946    8.3941 C.ar        1 C03       0.0134
     35 C50         6.9382   13.0931    9.6529 C.ar        1 C03       0.0032
     36 C51         7.8016   12.6938   10.6992 C.ar        1 C03       0.0851
     37 C52         9.1992   12.8668   10.5679 C.ar        1 C03      -0.0395
     38 C53         9.7397   13.4676    9.4105 C.ar        1 C03      -0.0670
     39 O57         7.2839   12.0964   11.8149 O.3         1 C03      -0.3234
     40 C58         6.9928   13.0300   12.8686 C.3         1 C03       0.0592
     41 H1          9.9607   13.3234    2.1685 H           1 C03       0.0459
     42 H2          8.9313   13.5753    4.3456 H           1 C03       0.0504
     43 H3         13.4358   15.2536    3.5677 H           1 C03       0.0444
     44 H4         10.5257   15.9728    9.0129 H           1 C03       0.0449
     45 H5         11.6726   17.1598    8.4079 H           1 C03       0.0449
     46 H6         12.2539   15.5901    9.0039 H           1 C03       0.0449
     47 H7         13.7246   16.8223    7.1803 H           1 C03       0.0764
     48 H8         13.8497   16.8359    5.4456 H           1 C03       0.0764
     49 H9         13.5640   13.7191    7.4417 H           1 C03       0.0480
     50 H10        17.5646   12.5694    7.0266 H           1 C03       0.0487
     51 H11        18.0719   14.6583    5.9375 H           1 C03       0.0578
     52 H12        14.7164   12.8077    9.7036 H           1 C03       0.0818
     53 H13        15.6231   11.0443   11.1944 H           1 C03       0.0276
     54 H14        16.8587   11.6681   10.0918 H           1 C03       0.0276
     55 H15        16.1172   10.0874    9.7779 H           1 C03       0.0276
     56 H16         5.9295   12.9492    9.7206 H           1 C03       0.0476
     57 H17         9.8258   12.5541   11.3139 H           1 C03       0.0490
     58 H18        10.7453   13.5894    9.3127 H           1 C03       0.0582
     59 H19         6.5217   12.4786   13.6811 H           1 C03       0.0578
     60 H20         6.2994   13.8089   12.5405 H           1 C03       0.0578
     61 H21         7.9060   13.4931   13.2514 H           1 C03       0.0578
@<TRIPOS>BOND
     1     1     2  ar
     2     1     6  ar
     3     2     3  ar
     4     3     4  ar
     5     3     7   1
     6     4     5  ar
     7     4     9   1
     8     5     6  ar
     9     6    13   1
    10     7     8   2
    11     7    10   1
    12     8     9   1
    13     8    11   1
    14     9    12   1
    15    10    31   2
    16    10    34   1
    17    12    18   1
    18    13    14   1
    19    14    15   1
    20    14    16   1
    21    14    17   1
    22    18    19  ar
    23    18    23  ar
    24    19    20  ar
    25    20    21  ar
    26    20    25   1
    27    21    22  ar
    28    22    23  ar
    29    23    24   1
    30    25    26   1
    31    26    27   1
    32    26    28   1
    33    28    29  ar
    34    28    30  ar
    35    31    32   1
    36    32    33   1
    37    33    34  ar
    38    33    35  ar
    39    34    38  ar
    40    35    36  ar
    41    36    37  ar
    42    36    39   1
    43    37    38  ar
    44    39    40   1
    45     1    41   1
    46     2    42   1
    47     5    43   1
    48    11    44   1
    49    11    45   1
    50    11    46   1
    51    12    47   1
    52    12    48   1
    53    19    49   1
    54    21    50   1
    55    22    51   1
    56    26    52   1
    57    27    53   1
    58    27    54   1
    59    27    55   1
    60    35    56   1
    61    37    57   1
    62    38    58   1
    63    40    59   1
    64    40    60   1
    65    40    61   1
@<TRIPOS>SUBSTRUCTURE
     1  C03      1

