@<TRIPOS>MOLECULE
2p4y_ligand_035
    61    65
SMALL
GAST_HUCK
****
This file was generated by PARSER (from files_GN.cpp)

@<TRIPOS>ATOM
      1 C1         18.8966   12.8565    9.0535 C.ar        1 C03      -0.0494
      2 C2         18.0760   11.8066    9.5060 C.ar        1 C03      -0.0824
      3 C3         16.7064   11.8275    9.1773 C.ar        1 C03      -0.0320
      4 C4         16.1566   12.8714    8.4248 C.ar        1 C03       0.0592
      5 C5         16.9801   13.9287    7.9804 C.ar        1 C03      -0.0175
      6 C6         18.3632   13.9157    8.2826 C.ar        1 C03       0.0845
      7 C10        15.6621   10.9730    9.5073 C.2         1 C03      -0.0105
      8 C11        14.5074   11.5080    8.9292 C.2         1 C03       0.0574
      9 N12        14.8246   12.6695    8.3002 N.pl3       1 C03      -0.2466
     10 C13        15.7469    9.8744   10.3801 C.2         1 C03       0.0368
     11 C14        13.1456   10.9289    9.0314 C.3         1 C03      -0.0027
     12 C18        13.9181   13.5471    7.6008 C.3         1 C03       0.0846
     13 O19        19.1825   14.9637    7.9543 O.3         1 C03      -0.2340
     14 C20        19.4321   15.1940    6.5534 C.3         1 C03       0.5447
     15 F21        20.4872   16.0665    6.4691 F           1 C03      -0.1402
     16 F22        18.3582   15.7872    5.9349 F           1 C03      -0.1402
     17 F23        19.7910   14.0590    5.8639 F           1 C03      -0.1402
     18 C24        13.5122   14.8343    8.2616 C.ar        1 C03      -0.0091
     19 C27        12.9296   15.8045    7.4035 C.ar        1 C03      -0.0287
     20 C28        12.5167   17.0686    7.8659 C.ar        1 C03       0.0876
     21 C29        12.6395   17.3730    9.2305 C.ar        1 C03      -0.0391
     22 C30        13.1724   16.4237   10.1190 C.ar        1 C03      -0.0631
     23 C31        13.5883   15.1572    9.6527 C.ar        1 C03       0.0319
     24 CL1        14.0858   14.0718   10.8563 Cl          1 C03      -0.0872
     25 O36        11.9505   18.0145    7.0520 O.3         1 C03      -0.3024
     26 C37        12.7722   18.7047    6.0732 C.3         1 C03       0.1302
     27 C38        12.5426   18.1086    4.6598 C.3         1 C03      -0.0222
     28 C42        14.1974   18.8442    6.4381 C.2         1 C03       0.0683
     29 O44        14.5643   19.5356    7.5432 O.co2       1 C03      -0.5660
     30 O45        15.1877   18.1755    5.7891 O.co2       1 C03      -0.5660
     31 N46        15.1443    9.8254   11.5828 N.2         1 C03      -0.1679
     32 O47        15.3816    8.6787   12.1638 O.3         1 C03      -0.1876
     33 C48        16.1500    7.9277   11.3409 C.ar        1 C03       0.1433
     34 C49        16.4011    8.6663   10.1900 C.ar        1 C03       0.0134
     35 C50        16.6262    6.6163   11.4908 C.ar        1 C03       0.0032
     36 C51        17.3599    6.0374   10.4295 C.ar        1 C03       0.0851
     37 C52        17.6328    6.7974    9.2641 C.ar        1 C03      -0.0395
     38 C53        17.1553    8.1166    9.1345 C.ar        1 C03      -0.0670
     39 O57        17.8219    4.7518   10.5329 O.3         1 C03      -0.3234
     40 C58        16.8711    3.7736   10.0823 C.3         1 C03       0.0592
     41 H1         19.8847   12.8690    9.3122 H           1 C03       0.0459
     42 H2         18.4639   11.0599   10.0900 H           1 C03       0.0504
     43 H3         16.5728   14.7184    7.4734 H           1 C03       0.0444
     44 H4         13.1418   10.0019    9.5993 H           1 C03       0.0449
     45 H5         12.7690   10.7208    8.0318 H           1 C03       0.0449
     46 H6         12.4835   11.6428    9.5226 H           1 C03       0.0449
     47 H7         12.9891   13.0311    7.3470 H           1 C03       0.0764
     48 H8         14.3954   13.7744    6.6372 H           1 C03       0.0764
     49 H9         12.7926   15.5932    6.4130 H           1 C03       0.0480
     50 H10        12.3308   18.2828    9.5834 H           1 C03       0.0487
     51 H11        13.2415   16.6632   11.1131 H           1 C03       0.0578
     52 H12        12.3787   19.7194    6.0252 H           1 C03       0.0818
     53 H13        12.9530   18.7792    3.9014 H           1 C03       0.0276
     54 H14        11.4673   18.0010    4.4763 H           1 C03       0.0276
     55 H15        13.0158   17.1325    4.5611 H           1 C03       0.0276
     56 H16        16.4226    6.0870   12.3427 H           1 C03       0.0476
     57 H17        18.1719    6.3785    8.5003 H           1 C03       0.0490
     58 H18        17.3261    8.6542    8.2808 H           1 C03       0.0582
     59 H19        17.3347    2.7897   10.1600 H           1 C03       0.0578
     60 H20        16.5917    3.9386    9.0375 H           1 C03       0.0578
     61 H21        15.9726    3.7773   10.7063 H           1 C03       0.0578
@<TRIPOS>BOND
     1     1     2  ar
     2     1     6  ar
     3     2     3  ar
     4     3     4  ar
     5     3     7   1
     6     4     5  ar
     7     4     9   1
     8     5     6  ar
     9     6    13   1
    10     7     8   2
    11     7    10   1
    12     8     9   1
    13     8    11   1
    14     9    12   1
    15    10    31   2
    16    10    34   1
    17    12    18   1
    18    13    14   1
    19    14    15   1
    20    14    16   1
    21    14    17   1
    22    18    19  ar
    23    18    23  ar
    24    19    20  ar
    25    20    21  ar
    26    20    25   1
    27    21    22  ar
    28    22    23  ar
    29    23    24   1
    30    25    26   1
    31    26    27   1
    32    26    28   1
    33    28    29  ar
    34    28    30  ar
    35    31    32   1
    36    32    33   1
    37    33    34  ar
    38    33    35  ar
    39    34    38  ar
    40    35    36  ar
    41    36    37  ar
    42    36    39   1
    43    37    38  ar
    44    39    40   1
    45     1    41   1
    46     2    42   1
    47     5    43   1
    48    11    44   1
    49    11    45   1
    50    11    46   1
    51    12    47   1
    52    12    48   1
    53    19    49   1
    54    21    50   1
    55    22    51   1
    56    26    52   1
    57    27    53   1
    58    27    54   1
    59    27    55   1
    60    35    56   1
    61    37    57   1
    62    38    58   1
    63    40    59   1
    64    40    60   1
    65    40    61   1
@<TRIPOS>SUBSTRUCTURE
     1  C03      1

