@<TRIPOS>MOLECULE
2p4y_ligand_076
    61    65
SMALL
GAST_HUCK
****
This file was generated by PARSER (from files_GN.cpp)

@<TRIPOS>ATOM
      1 C1          5.4733   10.4723   15.3417 C.ar        1 C03      -0.0494
      2 C2          6.1431    9.5680   14.4953 C.ar        1 C03      -0.0824
      3 C3          5.4670    9.0427   13.3707 C.ar        1 C03      -0.0320
      4 C4          4.1607    9.4378   13.0661 C.ar        1 C03       0.0592
      5 C5          3.4833   10.3298   13.9305 C.ar        1 C03      -0.0175
      6 C6          4.1369   10.8422   15.0715 C.ar        1 C03       0.0845
      7 C10         5.8722    8.1219   12.4042 C.2         1 C03      -0.0105
      8 C11         4.7966    8.0241   11.5001 C.2         1 C03       0.0574
      9 N12         3.7728    8.8334   11.9145 N.pl3       1 C03      -0.2466
     10 C13         7.0888    7.3781   12.4658 C.2         1 C03       0.0368
     11 C14         4.7507    7.1037   10.3389 C.3         1 C03      -0.0027
     12 C18         2.4640    8.9565   11.3010 C.3         1 C03       0.0846
     13 O19         3.5012   11.7613   15.8701 O.3         1 C03      -0.2340
     14 C20         3.2593   11.3428   17.2271 C.3         1 C03       0.5447
     15 F21         2.5410   12.3393   17.8310 F           1 C03      -0.1402
     16 F22         4.4251   11.1765   17.9383 F           1 C03      -0.1402
     17 F23         2.5069   10.1941   17.3032 F           1 C03      -0.1402
     18 C24         2.4339    9.8096   10.0691 C.ar        1 C03      -0.0091
     19 C27         1.9732    9.2544    8.8468 C.ar        1 C03      -0.0287
     20 C28         1.9585   10.0064    7.6508 C.ar        1 C03       0.0876
     21 C29         2.3169   11.3627    7.6969 C.ar        1 C03      -0.0391
     22 C30         2.7468   11.9443    8.9003 C.ar        1 C03      -0.0631
     23 C31         2.8207   11.1801   10.0819 C.ar        1 C03       0.0319
     24 CL1         3.3576   11.9844   11.4786 Cl          1 C03      -0.0872
     25 O36         1.5875    9.4766    6.4426 O.3         1 C03      -0.3024
     26 C37         2.2737    8.2888    5.9983 C.3         1 C03       0.1302
     27 C38         3.2837    8.6459    4.8847 C.3         1 C03      -0.0222
     28 C42         1.2453    7.3461    5.5086 C.2         1 C03       0.0683
     29 O44         0.6590    7.5274    4.2988 O.co2       1 C03      -0.5660
     30 O45         0.7273    6.4028    6.3386 O.co2       1 C03      -0.5660
     31 N46         7.6803    7.1065   13.6506 N.2         1 C03      -0.1679
     32 O47         8.7834    6.4267   13.4920 O.3         1 C03      -0.1876
     33 C48         8.9718    6.2405   12.1729 C.ar        1 C03       0.1433
     34 C49         7.9195    6.8359   11.4811 C.ar        1 C03       0.0134
     35 C50        10.0414    5.6093   11.5163 C.ar        1 C03       0.0032
     36 C51        10.0519    5.5801   10.1056 C.ar        1 C03       0.0851
     37 C52         8.9888    6.1879    9.3949 C.ar        1 C03      -0.0395
     38 C53         7.9213    6.8220   10.0716 C.ar        1 C03      -0.0670
     39 O57        11.1437    5.0646    9.4609 O.3         1 C03      -0.3234
     40 C58        10.8477    4.0471    8.4941 C.3         1 C03       0.0592
     41 H1          5.9553   10.8680   16.1494 H           1 C03       0.0459
     42 H2          7.1127    9.3173   14.6896 H           1 C03       0.0504
     43 H3          2.5222   10.6182   13.7457 H           1 C03       0.0444
     44 H4          5.4393    6.2662   10.4645 H           1 C03       0.0449
     45 H5          5.0061    7.6551    9.4340 H           1 C03       0.0449
     46 H6          3.7545    6.6829   10.2153 H           1 C03       0.0449
     47 H7          1.7245    9.3740   11.9837 H           1 C03       0.0764
     48 H8          2.1097    7.9436   11.0878 H           1 C03       0.0764
     49 H9          1.6575    8.2789    8.8122 H           1 C03       0.0480
     50 H10         2.2872   11.9253    6.8465 H           1 C03       0.0487
     51 H11         3.0091   12.9314    8.9041 H           1 C03       0.0578
     52 H12         2.8416    7.7985    6.7916 H           1 C03       0.0818
     53 H13         3.8042    7.7474    4.5330 H           1 C03       0.0276
     54 H14         4.0278    9.3407    5.2765 H           1 C03       0.0276
     55 H15         2.7858    9.1160    4.0306 H           1 C03       0.0276
     56 H16        10.8122    5.2102   12.0561 H           1 C03       0.0476
     57 H17         9.0093    6.1768    8.3806 H           1 C03       0.0490
     58 H18         7.1805    7.2932    9.5483 H           1 C03       0.0582
     59 H19        11.7904    3.6336    8.1330 H           1 C03       0.0578
     60 H20        10.3116    4.4655    7.6375 H           1 C03       0.0578
     61 H21        10.2644    3.2340    8.9354 H           1 C03       0.0578
@<TRIPOS>BOND
     1     1     2  ar
     2     1     6  ar
     3     2     3  ar
     4     3     4  ar
     5     3     7   1
     6     4     5  ar
     7     4     9   1
     8     5     6  ar
     9     6    13   1
    10     7     8   2
    11     7    10   1
    12     8     9   1
    13     8    11   1
    14     9    12   1
    15    10    31   2
    16    10    34   1
    17    12    18   1
    18    13    14   1
    19    14    15   1
    20    14    16   1
    21    14    17   1
    22    18    19  ar
    23    18    23  ar
    24    19    20  ar
    25    20    21  ar
    26    20    25   1
    27    21    22  ar
    28    22    23  ar
    29    23    24   1
    30    25    26   1
    31    26    27   1
    32    26    28   1
    33    28    29  ar
    34    28    30  ar
    35    31    32   1
    36    32    33   1
    37    33    34  ar
    38    33    35  ar
    39    34    38  ar
    40    35    36  ar
    41    36    37  ar
    42    36    39   1
    43    37    38  ar
    44    39    40   1
    45     1    41   1
    46     2    42   1
    47     5    43   1
    48    11    44   1
    49    11    45   1
    50    11    46   1
    51    12    47   1
    52    12    48   1
    53    19    49   1
    54    21    50   1
    55    22    51   1
    56    26    52   1
    57    27    53   1
    58    27    54   1
    59    27    55   1
    60    35    56   1
    61    37    57   1
    62    38    58   1
    63    40    59   1
    64    40    60   1
    65    40    61   1
@<TRIPOS>SUBSTRUCTURE
     1  C03      1

