@<TRIPOS>MOLECULE
2p4y_ligand_004
    61    65
SMALL
GAST_HUCK
****
This file was generated by PARSER (from files_GN.cpp)

@<TRIPOS>ATOM
      1 C1         14.1827   13.7842   11.5909 C.ar        1 C03      -0.0494
      2 C2         13.2640   13.3435   10.6147 C.ar        1 C03      -0.0824
      3 C3         13.6437   13.3741    9.2598 C.ar        1 C03      -0.0320
      4 C4         14.9171   13.8120    8.8821 C.ar        1 C03       0.0592
      5 C5         15.8405   14.2366    9.8567 C.ar        1 C03      -0.0175
      6 C6         15.4646   14.2393   11.2206 C.ar        1 C03       0.0845
      7 C10        12.9707   13.0187    8.0941 C.2         1 C03      -0.0105
      8 C11        13.8646   13.2379    7.0348 C.2         1 C03       0.0574
      9 N12        15.0420   13.6958    7.5379 N.pl3       1 C03      -0.2466
     10 C13        11.6527   12.5134    8.0420 C.2         1 C03       0.0368
     11 C14        13.6569   12.8956    5.6062 C.3         1 C03      -0.0027
     12 C18        16.2442   13.9989    6.8008 C.3         1 C03       0.0846
     13 O19        16.3545   14.6291   12.1860 O.3         1 C03      -0.2340
     14 C20        16.5274   16.0533   12.3335 C.3         1 C03       0.5447
     15 F21        17.3785   16.2534   13.3900 F           1 C03      -0.1402
     16 F22        15.3510   16.7071   12.6224 F           1 C03      -0.1402
     17 F23        17.1091   16.6282   11.2273 F           1 C03      -0.1402
     18 C24        17.3865   13.0328    6.8763 C.ar        1 C03      -0.0091
     19 C27        18.6560   13.5587    6.5145 C.ar        1 C03      -0.0287
     20 C28        19.8356   12.7954    6.6046 C.ar        1 C03       0.0876
     21 C29        19.7519   11.4538    7.0116 C.ar        1 C03      -0.0391
     22 C30        18.5069   10.8860    7.3141 C.ar        1 C03      -0.0631
     23 C31        17.3236   11.6510    7.2253 C.ar        1 C03       0.0319
     24 CL1        15.8867   10.7782    7.4611 Cl          1 C03      -0.0872
     25 O36        21.0536   13.2896    6.2091 O.3         1 C03      -0.3024
     26 C37        21.6285   14.3455    7.0115 C.3         1 C03       0.1302
     27 C38        21.1394   15.7357    6.5335 C.3         1 C03      -0.0222
     28 C42        23.0991   14.2443    6.8700 C.2         1 C03       0.0683
     29 O44        23.8953   14.0598    7.9499 O.co2       1 C03      -0.5660
     30 O45        23.6800   14.3582    5.6541 O.co2       1 C03      -0.5660
     31 N46        11.1413   11.5676    8.8568 N.2         1 C03      -0.1679
     32 O47         9.8993   11.3011    8.5316 O.3         1 C03      -0.1876
     33 C48         9.5463   12.0789    7.4820 C.ar        1 C03       0.1433
     34 C49        10.6394   12.8784    7.1613 C.ar        1 C03       0.0134
     35 C50         8.3408   12.1795    6.7651 C.ar        1 C03       0.0032
     36 C51         8.2378   13.1090    5.7047 C.ar        1 C03       0.0851
     37 C52         9.3621   13.9105    5.3753 C.ar        1 C03      -0.0395
     38 C53        10.5530   13.8243    6.1232 C.ar        1 C03      -0.0670
     39 O57         7.0451   13.1372    5.0092 O.3         1 C03      -0.3234
     40 C58         6.5926   14.4054    4.5039 C.3         1 C03       0.0592
     41 H1         13.9197   13.7550   12.5800 H           1 C03       0.0459
     42 H2         12.3407   13.0069   10.8959 H           1 C03       0.0504
     43 H3         16.7814   14.5248    9.5870 H           1 C03       0.0444
     44 H4         12.7084   12.3949    5.4377 H           1 C03       0.0449
     45 H5         14.4491   12.2213    5.2701 H           1 C03       0.0449
     46 H6         13.6838   13.8060    5.0057 H           1 C03       0.0449
     47 H7         16.5828   14.9712    7.1742 H           1 C03       0.0764
     48 H8         16.0320   14.1515    5.7413 H           1 C03       0.0764
     49 H9         18.7302   14.5177    6.1692 H           1 C03       0.0480
     50 H10        20.5894   10.8753    7.0502 H           1 C03       0.0487
     51 H11        18.4644    9.8954    7.5744 H           1 C03       0.0578
     52 H12        21.3824   14.2272    8.0720 H           1 C03       0.0818
     53 H13        21.7137   16.5358    7.0069 H           1 C03       0.0276
     54 H14        20.0898   15.8766    6.7945 H           1 C03       0.0276
     55 H15        21.2431   15.8248    5.4488 H           1 C03       0.0276
     56 H16         7.5492   11.5828    7.0132 H           1 C03       0.0476
     57 H17         9.3246   14.5606    4.5903 H           1 C03       0.0490
     58 H18        11.3463   14.4339    5.9096 H           1 C03       0.0582
     59 H19         5.5792   14.2690    4.1202 H           1 C03       0.0578
     60 H20         7.2165   14.7536    3.6785 H           1 C03       0.0578
     61 H21         6.5643   15.1646    5.2898 H           1 C03       0.0578
@<TRIPOS>BOND
     1     1     2  ar
     2     1     6  ar
     3     2     3  ar
     4     3     4  ar
     5     3     7   1
     6     4     5  ar
     7     4     9   1
     8     5     6  ar
     9     6    13   1
    10     7     8   2
    11     7    10   1
    12     8     9   1
    13     8    11   1
    14     9    12   1
    15    10    31   2
    16    10    34   1
    17    12    18   1
    18    13    14   1
    19    14    15   1
    20    14    16   1
    21    14    17   1
    22    18    19  ar
    23    18    23  ar
    24    19    20  ar
    25    20    21  ar
    26    20    25   1
    27    21    22  ar
    28    22    23  ar
    29    23    24   1
    30    25    26   1
    31    26    27   1
    32    26    28   1
    33    28    29  ar
    34    28    30  ar
    35    31    32   1
    36    32    33   1
    37    33    34  ar
    38    33    35  ar
    39    34    38  ar
    40    35    36  ar
    41    36    37  ar
    42    36    39   1
    43    37    38  ar
    44    39    40   1
    45     1    41   1
    46     2    42   1
    47     5    43   1
    48    11    44   1
    49    11    45   1
    50    11    46   1
    51    12    47   1
    52    12    48   1
    53    19    49   1
    54    21    50   1
    55    22    51   1
    56    26    52   1
    57    27    53   1
    58    27    54   1
    59    27    55   1
    60    35    56   1
    61    37    57   1
    62    38    58   1
    63    40    59   1
    64    40    60   1
    65    40    61   1
@<TRIPOS>SUBSTRUCTURE
     1  C03      1

