@<TRIPOS>MOLECULE
2p4y_ligand_088
    61    65
SMALL
GAST_HUCK
****
This file was generated by PARSER (from files_GN.cpp)

@<TRIPOS>ATOM
      1 C1          7.1774    5.8812   13.3358 C.ar        1 C03      -0.0494
      2 C2          6.2114    6.4047   12.4588 C.ar        1 C03      -0.0824
      3 C3          5.6922    7.6950   12.6986 C.ar        1 C03      -0.0320
      4 C4          6.0884    8.4459   13.8105 C.ar        1 C03       0.0592
      5 C5          7.0579    7.9091   14.6910 C.ar        1 C03      -0.0175
      6 C6          7.6199    6.6362   14.4437 C.ar        1 C03       0.0845
      7 C10         4.7612    8.4517   11.9932 C.2         1 C03      -0.0105
      8 C11         4.6369    9.6668   12.6944 C.2         1 C03       0.0574
      9 N12         5.4226    9.6322   13.8142 N.pl3       1 C03      -0.2466
     10 C13         4.1476    8.0406   10.7809 C.2         1 C03       0.0368
     11 C14         3.8688   10.8385   12.2115 C.3         1 C03      -0.0027
     12 C18         5.6311   10.7117   14.7685 C.3         1 C03       0.0846
     13 O19         8.5648    6.0852   15.2735 O.3         1 C03      -0.2340
     14 C20         9.9087    6.5608   15.0728 C.3         1 C03       0.5447
     15 F21        10.7428    5.7686   15.8104 F           1 C03      -0.1402
     16 F22        10.0486    7.8454   15.5280 F           1 C03      -0.1402
     17 F23        10.3320    6.4807   13.7688 F           1 C03      -0.1402
     18 C24         4.4375   11.0724   15.5995 C.ar        1 C03      -0.0091
     19 C27         3.5459   12.0615   15.1201 C.ar        1 C03      -0.0287
     20 C28         2.3440   12.3690   15.7855 C.ar        1 C03       0.0876
     21 C29         2.0935   11.8093   17.0514 C.ar        1 C03      -0.0391
     22 C30         3.0078   10.8967   17.6021 C.ar        1 C03      -0.0631
     23 C31         4.1582   10.5061   16.8777 C.ar        1 C03       0.0319
     24 CL1         5.1756    9.3802   17.6359 Cl          1 C03      -0.0872
     25 O36         1.4429   13.1959   15.1679 O.3         1 C03      -0.3024
     26 C37         0.1299   12.6622   14.8444 C.3         1 C03       0.1302
     27 C38        -0.0092   11.1831   14.3804 C.3         1 C03      -0.0222
     28 C42        -0.4179   13.5502   13.8038 C.2         1 C03       0.0683
     29 O44        -1.5541   14.2503   14.0172 O.co2       1 C03      -0.5660
     30 O45         0.2061   13.6793   12.6102 O.co2       1 C03      -0.5660
     31 N46         4.7883    7.3603    9.8059 N.2         1 C03      -0.1679
     32 O47         3.9943    7.1385    8.7874 O.3         1 C03      -0.1876
     33 C48         2.7863    7.6741    9.0656 C.ar        1 C03       0.1433
     34 C49         2.8434    8.2451   10.3333 C.ar        1 C03       0.0134
     35 C50         1.6116    7.7070    8.2972 C.ar        1 C03       0.0032
     36 C51         0.4735    8.3614    8.8256 C.ar        1 C03       0.0851
     37 C52         0.5181    8.9154   10.1247 C.ar        1 C03      -0.0395
     38 C53         1.6943    8.8355   10.8971 C.ar        1 C03      -0.0670
     39 O57        -0.6909    8.3983    8.1100 O.3         1 C03      -0.3234
     40 C58        -0.8259    9.5849    7.3103 C.3         1 C03       0.0592
     41 H1          7.5589    4.9468   13.1666 H           1 C03       0.0459
     42 H2          5.8933    5.8441   11.6630 H           1 C03       0.0504
     43 H3          7.3699    8.4315   15.5060 H           1 C03       0.0444
     44 H4          3.5981   10.7540   11.1606 H           1 C03       0.0449
     45 H5          4.4486   11.7507   12.3184 H           1 C03       0.0449
     46 H6          2.9479   10.9236   12.7815 H           1 C03       0.0449
     47 H7          5.9743   11.5941   14.2281 H           1 C03       0.0764
     48 H8          6.4636   10.4877   15.4270 H           1 C03       0.0764
     49 H9          3.7508   12.5738   14.2675 H           1 C03       0.0480
     50 H10         1.2415   12.0586   17.5648 H           1 C03       0.0487
     51 H11         2.8155   10.5022   18.5275 H           1 C03       0.0578
     52 H12        -0.4746   12.7674   15.7486 H           1 C03       0.0818
     53 H13        -1.0438   10.9585   14.1185 H           1 C03       0.0276
     54 H14         0.2852   10.5042   15.1839 H           1 C03       0.0276
     55 H15         0.6218   10.9875   13.5146 H           1 C03       0.0276
     56 H16         1.5864    7.2689    7.3729 H           1 C03       0.0476
     57 H17        -0.3072    9.3768   10.5122 H           1 C03       0.0490
     58 H18         1.7023    9.2003   11.8494 H           1 C03       0.0582
     59 H19        -1.7740    9.5221    6.7775 H           1 C03       0.0578
     60 H20        -0.0231    9.6571    6.5742 H           1 C03       0.0578
     61 H21        -0.8402   10.4856    7.9278 H           1 C03       0.0578
@<TRIPOS>BOND
     1     1     2  ar
     2     1     6  ar
     3     2     3  ar
     4     3     4  ar
     5     3     7   1
     6     4     5  ar
     7     4     9   1
     8     5     6  ar
     9     6    13   1
    10     7     8   2
    11     7    10   1
    12     8     9   1
    13     8    11   1
    14     9    12   1
    15    10    31   2
    16    10    34   1
    17    12    18   1
    18    13    14   1
    19    14    15   1
    20    14    16   1
    21    14    17   1
    22    18    19  ar
    23    18    23  ar
    24    19    20  ar
    25    20    21  ar
    26    20    25   1
    27    21    22  ar
    28    22    23  ar
    29    23    24   1
    30    25    26   1
    31    26    27   1
    32    26    28   1
    33    28    29  ar
    34    28    30  ar
    35    31    32   1
    36    32    33   1
    37    33    34  ar
    38    33    35  ar
    39    34    38  ar
    40    35    36  ar
    41    36    37  ar
    42    36    39   1
    43    37    38  ar
    44    39    40   1
    45     1    41   1
    46     2    42   1
    47     5    43   1
    48    11    44   1
    49    11    45   1
    50    11    46   1
    51    12    47   1
    52    12    48   1
    53    19    49   1
    54    21    50   1
    55    22    51   1
    56    26    52   1
    57    27    53   1
    58    27    54   1
    59    27    55   1
    60    35    56   1
    61    37    57   1
    62    38    58   1
    63    40    59   1
    64    40    60   1
    65    40    61   1
@<TRIPOS>SUBSTRUCTURE
     1  C03      1

