@<TRIPOS>MOLECULE
2p4y_ligand_057
    61    65
SMALL
GAST_HUCK
****
This file was generated by PARSER (from files_GN.cpp)

@<TRIPOS>ATOM
      1 C1          8.7167    5.6312    9.6719 C.ar        1 C03      -0.0494
      2 C2          8.0587    6.4752   10.5883 C.ar        1 C03      -0.0824
      3 C3          8.2546    6.2755   11.9707 C.ar        1 C03      -0.0320
      4 C4          9.1523    5.3083   12.4276 C.ar        1 C03       0.0592
      5 C5          9.8120    4.4563   11.5122 C.ar        1 C03      -0.0175
      6 C6          9.6039    4.6266   10.1250 C.ar        1 C03       0.0845
      7 C10         7.7050    6.9141   13.0812 C.2         1 C03      -0.0105
      8 C11         8.3609    6.3671   14.1976 C.2         1 C03       0.0574
      9 N12         9.2164    5.3846   13.7805 N.pl3       1 C03      -0.2466
     10 C13         6.7262    7.9429   13.0702 C.2         1 C03       0.0368
     11 C14         8.1637    6.7666   15.6133 C.3         1 C03      -0.0027
     12 C18         9.9824    4.5002   14.6338 C.3         1 C03       0.0846
     13 O19        10.2198    3.7428    9.2765 O.3         1 C03      -0.2340
     14 C20        11.2031    4.2676    8.3655 C.3         1 C03       0.5447
     15 F21        11.8369    3.1891    7.8019 F           1 C03      -0.1402
     16 F22        12.1632    5.0336    8.9804 F           1 C03      -0.1402
     17 F23        10.6392    4.9905    7.3433 F           1 C03      -0.1402
     18 C24        11.3839    4.1892   14.2155 C.ar        1 C03      -0.0091
     19 C27        12.2654    5.2647   13.9535 C.ar        1 C03      -0.0287
     20 C28        13.6053    5.0410   13.5760 C.ar        1 C03       0.0876
     21 C29        14.0987    3.7181   13.5493 C.ar        1 C03      -0.0391
     22 C30        13.2523    2.6438   13.8461 C.ar        1 C03      -0.0631
     23 C31        11.8959    2.8606   14.1568 C.ar        1 C03       0.0319
     24 CL1        10.9820    1.4707   14.4978 Cl          1 C03      -0.0872
     25 O36        14.3992    6.1391   13.3545 O.3         1 C03      -0.3024
     26 C37        15.0715    6.3010   12.0859 C.3         1 C03       0.1302
     27 C38        14.2144    5.9178   10.8495 C.3         1 C03      -0.0222
     28 C42        16.4009    5.6558   12.0723 C.2         1 C03       0.0683
     29 O44        17.0267    5.4133   10.8972 O.co2       1 C03      -0.5660
     30 O45        17.2081    5.8027   13.1491 O.co2       1 C03      -0.5660
     31 N46         6.7196    8.9785   13.9341 N.2         1 C03      -0.1679
     32 O47         5.6959    9.7630   13.7172 O.3         1 C03      -0.1876
     33 C48         4.9759    9.2630   12.6873 C.ar        1 C03       0.1433
     34 C49         5.6114    8.1047   12.2461 C.ar        1 C03       0.0134
     35 C50         3.7826    9.7229   12.1031 C.ar        1 C03       0.0032
     36 C51         3.2356    8.9981   11.0161 C.ar        1 C03       0.0851
     37 C52         3.8781    7.8200   10.5659 C.ar        1 C03      -0.0395
     38 C53         5.0641    7.3663   11.1790 C.ar        1 C03      -0.0670
     39 O57         2.0456    9.3572   10.4467 O.3         1 C03      -0.3234
     40 C58         2.0345   10.6959    9.9114 C.3         1 C03       0.0592
     41 H1          8.5416    5.7349    8.6701 H           1 C03       0.0459
     42 H2          7.4450    7.2115   10.2336 H           1 C03       0.0504
     43 H3         10.4329    3.7182   11.8513 H           1 C03       0.0444
     44 H4          7.3528    7.4785   15.7434 H           1 C03       0.0449
     45 H5          9.0861    7.2191   15.9768 H           1 C03       0.0449
     46 H6          7.9347    5.8917   16.2208 H           1 C03       0.0449
     47 H7          9.3774    3.5975   14.7360 H           1 C03       0.0764
     48 H8         10.0690    4.9099   15.6444 H           1 C03       0.0764
     49 H9         11.9212    6.2264   14.0148 H           1 C03       0.0480
     50 H10        15.0781    3.5415   13.3455 H           1 C03       0.0487
     51 H11        13.6365    1.6980   13.8365 H           1 C03       0.0578
     52 H12        15.2615    7.3825   12.0063 H           1 C03       0.0818
     53 H13        14.6903    6.2437    9.9246 H           1 C03       0.0276
     54 H14        13.2247    6.3865   10.9117 H           1 C03       0.0276
     55 H15        14.0768    4.8331   10.8068 H           1 C03       0.0276
     56 H16         3.3292   10.5677   12.4564 H           1 C03       0.0476
     57 H17         3.4724    7.2870    9.7925 H           1 C03       0.0490
     58 H18         5.4937    6.4938   10.8655 H           1 C03       0.0582
     59 H19         1.0969   10.8325    9.3700 H           1 C03       0.0578
     60 H20         2.8651   10.8589    9.2136 H           1 C03       0.0578
     61 H21         2.0815   11.4365   10.7200 H           1 C03       0.0578
@<TRIPOS>BOND
     1     1     2  ar
     2     1     6  ar
     3     2     3  ar
     4     3     4  ar
     5     3     7   1
     6     4     5  ar
     7     4     9   1
     8     5     6  ar
     9     6    13   1
    10     7     8   2
    11     7    10   1
    12     8     9   1
    13     8    11   1
    14     9    12   1
    15    10    31   2
    16    10    34   1
    17    12    18   1
    18    13    14   1
    19    14    15   1
    20    14    16   1
    21    14    17   1
    22    18    19  ar
    23    18    23  ar
    24    19    20  ar
    25    20    21  ar
    26    20    25   1
    27    21    22  ar
    28    22    23  ar
    29    23    24   1
    30    25    26   1
    31    26    27   1
    32    26    28   1
    33    28    29  ar
    34    28    30  ar
    35    31    32   1
    36    32    33   1
    37    33    34  ar
    38    33    35  ar
    39    34    38  ar
    40    35    36  ar
    41    36    37  ar
    42    36    39   1
    43    37    38  ar
    44    39    40   1
    45     1    41   1
    46     2    42   1
    47     5    43   1
    48    11    44   1
    49    11    45   1
    50    11    46   1
    51    12    47   1
    52    12    48   1
    53    19    49   1
    54    21    50   1
    55    22    51   1
    56    26    52   1
    57    27    53   1
    58    27    54   1
    59    27    55   1
    60    35    56   1
    61    37    57   1
    62    38    58   1
    63    40    59   1
    64    40    60   1
    65    40    61   1
@<TRIPOS>SUBSTRUCTURE
     1  C03      1

