@<TRIPOS>MOLECULE
2p4y_ligand_082
    61    65
SMALL
GAST_HUCK
****
This file was generated by PARSER (from files_GN.cpp)

@<TRIPOS>ATOM
      1 C1          6.4003    9.4104   16.8777 C.ar        1 C03      -0.0494
      2 C2          6.7811    8.3961   15.9811 C.ar        1 C03      -0.0824
      3 C3          6.2935    8.4318   14.6578 C.ar        1 C03      -0.0320
      4 C4          5.4349    9.4547   14.2371 C.ar        1 C03       0.0592
      5 C5          5.1070   10.5054   15.1244 C.ar        1 C03      -0.0175
      6 C6          5.5758   10.4745   16.4552 C.ar        1 C03       0.0845
      7 C10         6.4585    7.5462   13.5973 C.2         1 C03      -0.0105
      8 C11         5.6635    8.0583   12.5530 C.2         1 C03       0.0574
      9 N12         5.0181    9.1876   12.9731 N.pl3       1 C03      -0.2466
     10 C13         7.1666    6.3141   13.6020 C.2         1 C03       0.0368
     11 C14         5.5944    7.4895   11.1833 C.3         1 C03      -0.0027
     12 C18         4.0813    9.9794   12.1953 C.3         1 C03       0.0846
     13 O19         5.2588   11.4833   17.3269 O.3         1 C03      -0.2340
     14 C20         4.1367   11.2257   18.1939 C.3         1 C03       0.5447
     15 F21         3.9834   12.3272   18.9929 F           1 C03      -0.1402
     16 F22         4.3304   10.1463   19.0238 F           1 C03      -0.1402
     17 F23         2.9661   11.0569   17.4951 F           1 C03      -0.1402
     18 C24         2.8040    9.2664   11.8565 C.ar        1 C03      -0.0091
     19 C27         2.5849    8.7959   10.5372 C.ar        1 C03      -0.0287
     20 C28         1.4097    8.0973   10.1705 C.ar        1 C03       0.0876
     21 C29         0.4062    7.9302   11.1436 C.ar        1 C03      -0.0391
     22 C30         0.5743    8.4223   12.4446 C.ar        1 C03      -0.0631
     23 C31         1.7683    9.0782   12.8125 C.ar        1 C03       0.0319
     24 CL1         1.8472    9.6439   14.4078 Cl          1 C03      -0.0872
     25 O36         1.1235    7.5477    8.9392 O.3         1 C03      -0.3024
     26 C37         2.0425    7.5356    7.8270 C.3         1 C03       0.1302
     27 C38         1.3008    6.9268    6.6150 C.3         1 C03      -0.0222
     28 C42         3.2703    6.7559    8.1103 C.2         1 C03       0.0683
     29 O44         4.4891    7.3179    7.9639 O.co2       1 C03      -0.5660
     30 O45         3.1922    5.4673    8.5030 O.co2       1 C03      -0.5660
     31 N46         6.7078    5.2304   12.9389 N.2         1 C03      -0.1679
     32 O47         7.5257    4.2189   13.0591 O.3         1 C03      -0.1876
     33 C48         8.5650    4.6068   13.8252 C.ar        1 C03       0.1433
     34 C49         8.3740    5.9383   14.1942 C.ar        1 C03       0.0134
     35 C50         9.7019    3.8783   14.2120 C.ar        1 C03       0.0032
     36 C51        10.6768    4.5120   15.0162 C.ar        1 C03       0.0851
     37 C52        10.4969    5.8680   15.3779 C.ar        1 C03      -0.0395
     38 C53         9.3500    6.5863   14.9801 C.ar        1 C03      -0.0670
     39 O57        11.8490    3.8984   15.3903 O.3         1 C03      -0.3234
     40 C58        11.7116    2.6715   16.1374 C.3         1 C03       0.0592
     41 H1          6.7291    9.3806   17.8457 H           1 C03       0.0459
     42 H2          7.3650    7.6214   16.3043 H           1 C03       0.0504
     43 H3          4.5112   11.2760   14.8288 H           1 C03       0.0444
     44 H4          6.3890    6.7654   10.9987 H           1 C03       0.0449
     45 H5          5.7131    8.2848   10.4477 H           1 C03       0.0449
     46 H6          4.6323    6.9983   11.0369 H           1 C03       0.0449
     47 H7          4.5959   10.3019   11.2904 H           1 C03       0.0764
     48 H8          3.8149   10.9100   12.6968 H           1 C03       0.0764
     49 H9          3.2971    8.9469    9.8248 H           1 C03       0.0480
     50 H10        -0.4634    7.4464   10.9035 H           1 C03       0.0487
     51 H11        -0.1838    8.3022   13.1234 H           1 C03       0.0578
     52 H12         2.3071    8.5642    7.5672 H           1 C03       0.0818
     53 H13         1.9391    6.9466    5.7265 H           1 C03       0.0276
     54 H14         0.3983    7.5062    6.4003 H           1 C03       0.0276
     55 H15         1.0067    5.8925    6.8127 H           1 C03       0.0276
     56 H16         9.8249    2.9096   13.9078 H           1 C03       0.0476
     57 H17        11.2144    6.3368   15.9316 H           1 C03       0.0490
     58 H18         9.2309    7.5648   15.2463 H           1 C03       0.0582
     59 H19        12.6881    2.4077   16.5529 H           1 C03       0.0578
     60 H20        11.3906    1.8553   15.4798 H           1 C03       0.0578
     61 H21        11.0035    2.7679   16.9697 H           1 C03       0.0578
@<TRIPOS>BOND
     1     1     2  ar
     2     1     6  ar
     3     2     3  ar
     4     3     4  ar
     5     3     7   1
     6     4     5  ar
     7     4     9   1
     8     5     6  ar
     9     6    13   1
    10     7     8   2
    11     7    10   1
    12     8     9   1
    13     8    11   1
    14     9    12   1
    15    10    31   2
    16    10    34   1
    17    12    18   1
    18    13    14   1
    19    14    15   1
    20    14    16   1
    21    14    17   1
    22    18    19  ar
    23    18    23  ar
    24    19    20  ar
    25    20    21  ar
    26    20    25   1
    27    21    22  ar
    28    22    23  ar
    29    23    24   1
    30    25    26   1
    31    26    27   1
    32    26    28   1
    33    28    29  ar
    34    28    30  ar
    35    31    32   1
    36    32    33   1
    37    33    34  ar
    38    33    35  ar
    39    34    38  ar
    40    35    36  ar
    41    36    37  ar
    42    36    39   1
    43    37    38  ar
    44    39    40   1
    45     1    41   1
    46     2    42   1
    47     5    43   1
    48    11    44   1
    49    11    45   1
    50    11    46   1
    51    12    47   1
    52    12    48   1
    53    19    49   1
    54    21    50   1
    55    22    51   1
    56    26    52   1
    57    27    53   1
    58    27    54   1
    59    27    55   1
    60    35    56   1
    61    37    57   1
    62    38    58   1
    63    40    59   1
    64    40    60   1
    65    40    61   1
@<TRIPOS>SUBSTRUCTURE
     1  C03      1

