@<TRIPOS>MOLECULE
2p4y_ligand_022
    61    65
SMALL
GAST_HUCK
****
This file was generated by PARSER (from files_GN.cpp)

@<TRIPOS>ATOM
      1 C1         19.1126   11.8566    7.8314 C.ar        1 C03      -0.0494
      2 C2         17.8739   11.3712    8.2899 C.ar        1 C03      -0.0824
      3 C3         17.1605   12.1260    9.2417 C.ar        1 C03      -0.0320
      4 C4         17.6484   13.3356    9.7408 C.ar        1 C03       0.0592
      5 C5         18.9017   13.8082    9.2897 C.ar        1 C03      -0.0175
      6 C6         19.6220   13.0833    8.3134 C.ar        1 C03       0.0845
      7 C10        15.9511   11.8864    9.8722 C.2         1 C03      -0.0105
      8 C11        15.7339   12.9517   10.7580 C.2         1 C03       0.0574
      9 N12        16.7626   13.8470   10.6376 N.pl3       1 C03      -0.2466
     10 C13        15.1515   10.7461    9.6943 C.2         1 C03       0.0368
     11 C14        14.5974   12.9771   11.7192 C.3         1 C03      -0.0027
     12 C18        17.0215   15.0821   11.3550 C.3         1 C03       0.0846
     13 O19        20.8345   13.5437    7.8711 O.3         1 C03      -0.2340
     14 C20        20.7814   14.3952    6.7075 C.3         1 C03       0.5447
     15 F21        22.0699   14.7567    6.4061 F           1 C03      -0.1402
     16 F22        20.0716   15.5527    6.9321 F           1 C03      -0.1402
     17 F23        20.2670   13.7545    5.6034 F           1 C03      -0.1402
     18 C24        15.8909   15.7243   12.0820 C.ar        1 C03      -0.0091
     19 C27        15.8900   15.7356   13.4998 C.ar        1 C03      -0.0287
     20 C28        14.8284   16.3065   14.2301 C.ar        1 C03       0.0876
     21 C29        13.7343   16.8521   13.5378 C.ar        1 C03      -0.0391
     22 C30        13.7130   16.8515   12.1329 C.ar        1 C03      -0.0631
     23 C31        14.7814   16.2931   11.4001 C.ar        1 C03       0.0319
     24 CL1        14.6423   16.2786    9.7089 Cl          1 C03      -0.0872
     25 O36        14.7460   16.1991   15.5959 O.3         1 C03      -0.3024
     26 C37        15.8738   16.6075   16.3992 C.3         1 C03       0.1302
     27 C38        16.1869   15.4608   17.3878 C.3         1 C03      -0.0222
     28 C42        15.5319   17.8514   17.1150 C.2         1 C03       0.0683
     29 O44        16.5276   18.6469   17.5678 O.co2       1 C03      -0.5660
     30 O45        14.3235   17.9747   17.7088 O.co2       1 C03      -0.5660
     31 N46        14.0287   10.6989    8.9533 N.2         1 C03      -0.1679
     32 O47        13.4764    9.5143    9.0524 O.3         1 C03      -0.1876
     33 C48        14.2204    8.7566    9.8881 C.ar        1 C03       0.1433
     34 C49        15.3048    9.5137   10.3121 C.ar        1 C03       0.0134
     35 C50        14.0396    7.4373   10.3311 C.ar        1 C03       0.0032
     36 C51        14.9768    6.8885   11.2367 C.ar        1 C03       0.0851
     37 C52        16.0893    7.6594   11.6546 C.ar        1 C03      -0.0395
     38 C53        16.2587    8.9825   11.1985 C.ar        1 C03      -0.0670
     39 O57        14.8379    5.5936   11.6531 O.3         1 C03      -0.3234
     40 C58        14.1833    5.4685   12.9274 C.3         1 C03       0.0592
     41 H1         19.6432   11.3189    7.1405 H           1 C03       0.0459
     42 H2         17.5043   10.4862    7.9383 H           1 C03       0.0504
     43 H3         19.2933   14.6755    9.6558 H           1 C03       0.0444
     44 H4         13.9803   12.0741   11.6630 H           1 C03       0.0449
     45 H5         13.9518   13.8352   11.5285 H           1 C03       0.0449
     46 H6         14.9816   13.0335   12.7403 H           1 C03       0.0449
     47 H7         17.3909   15.8347   10.6544 H           1 C03       0.0764
     48 H8         17.8556   14.8903   12.0344 H           1 C03       0.0764
     49 H9         16.6502   15.2827   14.0116 H           1 C03       0.0480
     50 H10        12.9249   17.2068   14.0545 H           1 C03       0.0487
     51 H11        12.8921   17.2239   11.6476 H           1 C03       0.0578
     52 H12        16.7745   16.7960   15.8035 H           1 C03       0.0818
     53 H13        17.0422   15.7187   18.0157 H           1 C03       0.0276
     54 H14        16.4276   14.5507   16.8350 H           1 C03       0.0276
     55 H15        15.3259   15.2553   18.0282 H           1 C03       0.0276
     56 H16        13.2408    6.8903   10.0057 H           1 C03       0.0476
     57 H17        16.7792    7.2550   12.2922 H           1 C03       0.0490
     58 H18        17.0625    9.5385   11.4942 H           1 C03       0.0582
     59 H19        14.0996    4.4069   13.1622 H           1 C03       0.0578
     60 H20        13.1756    5.8918   12.9036 H           1 C03       0.0578
     61 H21        14.7622    5.9476   13.7215 H           1 C03       0.0578
@<TRIPOS>BOND
     1     1     2  ar
     2     1     6  ar
     3     2     3  ar
     4     3     4  ar
     5     3     7   1
     6     4     5  ar
     7     4     9   1
     8     5     6  ar
     9     6    13   1
    10     7     8   2
    11     7    10   1
    12     8     9   1
    13     8    11   1
    14     9    12   1
    15    10    31   2
    16    10    34   1
    17    12    18   1
    18    13    14   1
    19    14    15   1
    20    14    16   1
    21    14    17   1
    22    18    19  ar
    23    18    23  ar
    24    19    20  ar
    25    20    21  ar
    26    20    25   1
    27    21    22  ar
    28    22    23  ar
    29    23    24   1
    30    25    26   1
    31    26    27   1
    32    26    28   1
    33    28    29  ar
    34    28    30  ar
    35    31    32   1
    36    32    33   1
    37    33    34  ar
    38    33    35  ar
    39    34    38  ar
    40    35    36  ar
    41    36    37  ar
    42    36    39   1
    43    37    38  ar
    44    39    40   1
    45     1    41   1
    46     2    42   1
    47     5    43   1
    48    11    44   1
    49    11    45   1
    50    11    46   1
    51    12    47   1
    52    12    48   1
    53    19    49   1
    54    21    50   1
    55    22    51   1
    56    26    52   1
    57    27    53   1
    58    27    54   1
    59    27    55   1
    60    35    56   1
    61    37    57   1
    62    38    58   1
    63    40    59   1
    64    40    60   1
    65    40    61   1
@<TRIPOS>SUBSTRUCTURE
     1  C03      1

