@<TRIPOS>MOLECULE
2p4y_ligand_046
    61    65
SMALL
GAST_HUCK
****
This file was generated by PARSER (from files_GN.cpp)

@<TRIPOS>ATOM
      1 C1         10.0863    1.6512   14.4004 C.ar        1 C03      -0.0494
      2 C2         11.1576    2.5695   14.3005 C.ar        1 C03      -0.0824
      3 C3         11.2153    3.4416   13.1915 C.ar        1 C03      -0.0320
      4 C4         10.1529    3.4885   12.2814 C.ar        1 C03       0.0592
      5 C5          9.0524    2.6160   12.4149 C.ar        1 C03      -0.0175
      6 C6          9.0328    1.6733   13.4614 C.ar        1 C03       0.0845
      7 C10        12.1525    4.3991   12.7920 C.2         1 C03      -0.0105
      8 C11        11.5881    5.0367   11.6656 C.2         1 C03       0.0574
      9 N12        10.3739    4.4763   11.3866 N.pl3       1 C03      -0.2466
     10 C13        13.3741    4.7150   13.4452 C.2         1 C03       0.0368
     11 C14        12.1557    6.1630   10.8738 C.3         1 C03      -0.0027
     12 C18         9.4758    4.8292   10.3022 C.3         1 C03       0.0846
     13 O19         8.0110    0.7674   13.5254 O.3         1 C03      -0.2340
     14 C20         6.9321    1.0754   14.4297 C.3         1 C03       0.5447
     15 F21         5.9468    0.1544   14.1885 F           1 C03      -0.1402
     16 F22         6.3834    2.3214   14.2269 F           1 C03      -0.1402
     17 F23         7.3113    0.9468   15.7452 F           1 C03      -0.1402
     18 C24         8.2747    5.6996   10.5645 C.ar        1 C03      -0.0091
     19 C27         7.4608    5.9976    9.4348 C.ar        1 C03      -0.0287
     20 C28         6.2897    6.7756    9.5186 C.ar        1 C03       0.0876
     21 C29         5.9186    7.2924   10.7728 C.ar        1 C03      -0.0391
     22 C30         6.6963    7.0248   11.9076 C.ar        1 C03      -0.0631
     23 C31         7.8767    6.2558   11.8175 C.ar        1 C03       0.0319
     24 CL1         8.7378    6.1178   13.2740 Cl          1 C03      -0.0872
     25 O36         5.5823    7.0185    8.3622 O.3         1 C03      -0.3024
     26 C37         4.1442    6.8459    8.3459 C.3         1 C03       0.1302
     27 C38         3.6915    5.4446    8.8045 C.3         1 C03      -0.0222
     28 C42         3.6787    7.0931    6.9662 C.2         1 C03       0.0683
     29 O44         4.0806    6.2905    5.9496 O.co2       1 C03      -0.5660
     30 O45         2.8626    8.1336    6.6759 O.co2       1 C03      -0.5660
     31 N46        13.8592    5.9718   13.4373 N.2         1 C03      -0.1679
     32 O47        14.9854    6.0707   14.0891 O.3         1 C03      -0.1876
     33 C48        15.2723    4.8549   14.5817 C.ar        1 C03       0.1433
     34 C49        14.2814    3.9553   14.1941 C.ar        1 C03       0.0134
     35 C50        16.3756    4.4841   15.3599 C.ar        1 C03       0.0032
     36 C51        16.4493    3.1587   15.8487 C.ar        1 C03       0.0851
     37 C52        15.4687    2.2234   15.4379 C.ar        1 C03      -0.0395
     38 C53        14.4107    2.5989   14.5731 C.ar        1 C03      -0.0670
     39 O57        17.5033    2.7349   16.6192 O.3         1 C03      -0.3234
     40 C58        17.7546    3.4828   17.8259 C.3         1 C03       0.0592
     41 H1         10.0726    0.9708   15.1625 H           1 C03       0.0459
     42 H2         11.8601    2.6058   15.0383 H           1 C03       0.0504
     43 H3          8.2635    2.6700   11.7639 H           1 C03       0.0444
     44 H4         13.1314    6.5013   11.2080 H           1 C03       0.0449
     45 H5         11.4719    7.0138   10.9208 H           1 C03       0.0449
     46 H6         12.2716    5.8634    9.8313 H           1 C03       0.0449
     47 H7          9.1206    3.8933    9.8637 H           1 C03       0.0764
     48 H8         10.0387    5.3058    9.4978 H           1 C03       0.0764
     49 H9          7.7346    5.6416    8.5110 H           1 C03       0.0480
     50 H10         5.0774    7.8620   10.8712 H           1 C03       0.0487
     51 H11         6.3845    7.4074   12.8060 H           1 C03       0.0578
     52 H12         3.6784    7.5945    8.9925 H           1 C03       0.0818
     53 H13         2.6061    5.3341    8.7068 H           1 C03       0.0276
     54 H14         3.9570    5.2952    9.8511 H           1 C03       0.0276
     55 H15         4.1764    4.6675    8.2102 H           1 C03       0.0276
     56 H16        17.0987    5.1740   15.5717 H           1 C03       0.0476
     57 H17        15.5335    1.2544   15.7627 H           1 C03       0.0490
     58 H18        13.7486    1.8968   14.2339 H           1 C03       0.0582
     59 H19        18.5907    3.0251   18.3556 H           1 C03       0.0578
     60 H20        16.8874    3.4709   18.4890 H           1 C03       0.0578
     61 H21        18.0273    4.5167   17.6021 H           1 C03       0.0578
@<TRIPOS>BOND
     1     1     2  ar
     2     1     6  ar
     3     2     3  ar
     4     3     4  ar
     5     3     7   1
     6     4     5  ar
     7     4     9   1
     8     5     6  ar
     9     6    13   1
    10     7     8   2
    11     7    10   1
    12     8     9   1
    13     8    11   1
    14     9    12   1
    15    10    31   2
    16    10    34   1
    17    12    18   1
    18    13    14   1
    19    14    15   1
    20    14    16   1
    21    14    17   1
    22    18    19  ar
    23    18    23  ar
    24    19    20  ar
    25    20    21  ar
    26    20    25   1
    27    21    22  ar
    28    22    23  ar
    29    23    24   1
    30    25    26   1
    31    26    27   1
    32    26    28   1
    33    28    29  ar
    34    28    30  ar
    35    31    32   1
    36    32    33   1
    37    33    34  ar
    38    33    35  ar
    39    34    38  ar
    40    35    36  ar
    41    36    37  ar
    42    36    39   1
    43    37    38  ar
    44    39    40   1
    45     1    41   1
    46     2    42   1
    47     5    43   1
    48    11    44   1
    49    11    45   1
    50    11    46   1
    51    12    47   1
    52    12    48   1
    53    19    49   1
    54    21    50   1
    55    22    51   1
    56    26    52   1
    57    27    53   1
    58    27    54   1
    59    27    55   1
    60    35    56   1
    61    37    57   1
    62    38    58   1
    63    40    59   1
    64    40    60   1
    65    40    61   1
@<TRIPOS>SUBSTRUCTURE
     1  C03      1

