@<TRIPOS>MOLECULE
2pcp_ligand_035
    44    46
SMALL
GAST_HUCK
****
This file was generated by PARSER (from files_GN.cpp)

@<TRIPOS>ATOM
      1 CP        -14.7594  -29.4118  -10.9040 C.3         1 MOL      -0.0434
      2 CA        -12.2567  -31.6360  -14.9074 C.ar        1 MOL      -0.0018
      3 CB        -11.1453  -32.2921  -14.3000 C.ar        1 MOL      -0.0343
      4 CC        -10.9287  -33.6792  -14.4215 C.ar        1 MOL      -0.0322
      5 CD        -11.8474  -34.4749  -15.1206 C.ar        1 MOL      -0.0340
      6 CE        -12.9850  -33.8799  -15.6873 C.ar        1 MOL      -0.0322
      7 CF        -13.1865  -32.4918  -15.5703 C.ar        1 MOL      -0.0343
      8 CG        -12.4593  -30.1164  -14.7327 C.3         1 MOL      -0.0135
      9 CH        -11.0260  -29.4499  -14.9567 C.3         1 MOL      -0.0293
     10 CI        -10.9012  -27.9532  -15.3751 C.3         1 MOL      -0.0551
     11 CJ        -11.8646  -27.5719  -16.5173 C.3         1 MOL      -0.0541
     12 CK        -13.3116  -27.9919  -16.1859 C.3         1 MOL      -0.0551
     13 CL        -13.4131  -29.5063  -15.8492 C.3         1 MOL      -0.0293
     14 NM        -13.0021  -29.9567  -13.2971 N.4         1 MOL       0.1961
     15 CN        -13.2907  -28.5647  -12.8140 C.3         1 MOL      -0.0361
     16 CO        -13.6231  -28.4511  -11.3060 C.3         1 MOL      -0.0123
     17 CQ        -14.4471  -30.8447  -11.3855 C.3         1 MOL      -0.0123
     18 CR        -14.1557  -30.8606  -12.9091 C.3         1 MOL      -0.0361
     19 H1        -14.8779  -29.4020   -9.8189 H           1 MOL       0.0269
     20 H2        -15.6955  -29.0725  -11.3511 H           1 MOL       0.0269
     21 H3        -10.4649  -31.7634  -13.7493 H           1 MOL       0.0852
     22 H4        -10.1083  -34.1179  -13.9874 H           1 MOL       0.0698
     23 H5        -11.7048  -35.4838  -15.2043 H           1 MOL       0.0856
     24 H6        -13.6797  -34.4574  -16.1700 H           1 MOL       0.0698
     25 H7        -14.0579  -32.1260  -15.9524 H           1 MOL       0.0852
     26 H8        -10.5084  -29.9993  -15.7536 H           1 MOL       0.0227
     27 H9        -10.4277  -29.5703  -14.0503 H           1 MOL       0.0227
     28 H10        -9.8766  -27.7684  -15.7136 H           1 MOL       0.0260
     29 H11       -11.0665  -27.2809  -14.5345 H           1 MOL       0.0260
     30 H12       -11.5399  -28.0553  -17.4464 H           1 MOL       0.0265
     31 H13       -11.8223  -26.4888  -16.6708 H           1 MOL       0.0265
     32 H14       -13.9326  -27.7810  -17.0628 H           1 MOL       0.0260
     33 H15       -13.6775  -27.3723  -15.3697 H           1 MOL       0.0260
     34 H16       -14.4556  -29.7272  -15.6194 H           1 MOL       0.0227
     35 H17       -13.1906  -30.0007  -16.7989 H           1 MOL       0.0227
     36 H18       -12.2263  -30.2673  -12.7099 H           1 MOL       0.1993
     37 H19       -12.4228  -27.9373  -12.9590 H           1 MOL       0.0815
     38 H20       -14.1283  -28.1488  -13.3693 H           1 MOL       0.0815
     39 H21       -12.7304  -28.6785  -10.7169 H           1 MOL       0.0317
     40 H22       -13.9202  -27.4251  -11.0803 H           1 MOL       0.0317
     41 H23       -15.3032  -31.4899  -11.1686 H           1 MOL       0.0317
     42 H24       -13.5810  -31.2358  -10.8428 H           1 MOL       0.0317
     43 H25       -13.9548  -31.9032  -13.1604 H           1 MOL       0.0815
     44 H26       -15.0702  -30.5728  -13.4321 H           1 MOL       0.0815
@<TRIPOS>BOND
     1     1    17   1
     2     1    16   1
     3    16    15   1
     4    15    14   1
     5    14    18   1
     6    14     8   1
     7     8    13   1
     8     8     9   1
     9     8     2   1
    10     2     7  ar
    11     2     3  ar
    12     3     4  ar
    13     4     5  ar
    14     5     6  ar
    15     6     7  ar
    16     9    10   1
    17    10    11   1
    18    11    12   1
    19    12    13   1
    20    18    17   1
    21     1    19   1
    22     1    20   1
    23     3    21   1
    24     4    22   1
    25     5    23   1
    26     6    24   1
    27     7    25   1
    28     9    26   1
    29     9    27   1
    30    10    28   1
    31    10    29   1
    32    11    30   1
    33    11    31   1
    34    12    32   1
    35    12    33   1
    36    13    34   1
    37    13    35   1
    38    14    36   1
    39    15    37   1
    40    15    38   1
    41    16    39   1
    42    16    40   1
    43    17    41   1
    44    17    42   1
    45    18    43   1
    46    18    44   1
@<TRIPOS>SUBSTRUCTURE
     1  MOL      1

