@<TRIPOS>MOLECULE
2pcp_ligand_021
    44    46
SMALL
GAST_HUCK
****
This file was generated by PARSER (from files_GN.cpp)

@<TRIPOS>ATOM
      1 CP         -7.9628  -31.7684  -13.6845 C.3         1 MOL      -0.0434
      2 CA        -10.5928  -36.0153  -12.7379 C.ar        1 MOL      -0.0018
      3 CB        -11.0535  -35.8354  -14.0675 C.ar        1 MOL      -0.0343
      4 CC        -10.9113  -36.8295  -15.0562 C.ar        1 MOL      -0.0322
      5 CD        -10.3188  -38.0599  -14.7345 C.ar        1 MOL      -0.0340
      6 CE         -9.8744  -38.2935  -13.4247 C.ar        1 MOL      -0.0322
      7 CF        -10.0035  -37.2859  -12.4485 C.ar        1 MOL      -0.0343
      8 CG        -10.6753  -34.8449  -11.7354 C.3         1 MOL      -0.0135
      9 CH        -12.2161  -34.4720  -11.6120 C.3         1 MOL      -0.0293
     10 CI        -12.6879  -33.5938  -10.4117 C.3         1 MOL      -0.0551
     11 CJ        -12.1468  -34.1032   -9.0566 C.3         1 MOL      -0.0541
     12 CK        -10.6178  -34.3089   -9.1351 C.3         1 MOL      -0.0551
     13 CL        -10.2518  -35.2906  -10.2782 C.3         1 MOL      -0.0293
     14 NM         -9.6944  -33.7152  -12.1335 N.4         1 MOL       0.1961
     15 CN        -10.2408  -32.4558  -12.7576 C.3         1 MOL      -0.0361
     16 CO         -9.1740  -31.3221  -12.8391 C.3         1 MOL      -0.0123
     17 CQ         -7.3705  -33.0682  -13.0922 C.3         1 MOL      -0.0123
     18 CR         -8.4703  -34.1479  -12.9076 C.3         1 MOL      -0.0361
     19 H1         -8.2744  -31.9416  -14.7194 H           1 MOL       0.0269
     20 H2         -7.2050  -30.9817  -13.6833 H           1 MOL       0.0269
     21 H3        -11.4671  -34.9442  -14.3545 H           1 MOL       0.0852
     22 H4        -11.2297  -36.6523  -16.0127 H           1 MOL       0.0698
     23 H5        -10.2040  -38.7792  -15.4501 H           1 MOL       0.0856
     24 H6         -9.4378  -39.1889  -13.1857 H           1 MOL       0.0698
     25 H7         -9.6136  -37.5017  -11.5316 H           1 MOL       0.0852
     26 H8        -12.7947  -35.4039  -11.5333 H           1 MOL       0.0227
     27 H9        -12.5637  -33.9794  -12.5213 H           1 MOL       0.0227
     28 H10       -13.7835  -33.6041  -10.3718 H           1 MOL       0.0260
     29 H11       -12.3891  -32.5523  -10.5438 H           1 MOL       0.0260
     30 H12       -12.6379  -35.0424   -8.7987 H           1 MOL       0.0265
     31 H13       -12.3831  -33.3734   -8.2733 H           1 MOL       0.0265
     32 H14       -10.2679  -34.7210   -8.1857 H           1 MOL       0.0260
     33 H15       -10.1268  -33.3447   -9.2873 H           1 MOL       0.0260
     34 H16        -9.1740  -35.4658  -10.2321 H           1 MOL       0.0227
     35 H17       -10.7480  -36.2382  -10.0233 H           1 MOL       0.0227
     36 H18        -9.2893  -33.4013  -11.2451 H           1 MOL       0.1993
     37 H19       -10.6401  -32.6541  -13.7554 H           1 MOL       0.0815
     38 H20       -11.0565  -32.0562  -12.1530 H           1 MOL       0.0815
     39 H21        -9.6195  -30.4264  -13.2777 H           1 MOL       0.0317
     40 H22        -8.8314  -31.0718  -11.8246 H           1 MOL       0.0317
     41 H23        -6.9069  -32.8460  -12.1240 H           1 MOL       0.0317
     42 H24        -6.5881  -33.4442  -13.7634 H           1 MOL       0.0317
     43 H25        -8.7593  -34.4652  -13.9136 H           1 MOL       0.0815
     44 H26        -7.9990  -34.9920  -12.4006 H           1 MOL       0.0815
@<TRIPOS>BOND
     1     1    17   1
     2     1    16   1
     3    16    15   1
     4    15    14   1
     5    14    18   1
     6    14     8   1
     7     8    13   1
     8     8     9   1
     9     8     2   1
    10     2     7  ar
    11     2     3  ar
    12     3     4  ar
    13     4     5  ar
    14     5     6  ar
    15     6     7  ar
    16     9    10   1
    17    10    11   1
    18    11    12   1
    19    12    13   1
    20    18    17   1
    21     1    19   1
    22     1    20   1
    23     3    21   1
    24     4    22   1
    25     5    23   1
    26     6    24   1
    27     7    25   1
    28     9    26   1
    29     9    27   1
    30    10    28   1
    31    10    29   1
    32    11    30   1
    33    11    31   1
    34    12    32   1
    35    12    33   1
    36    13    34   1
    37    13    35   1
    38    14    36   1
    39    15    37   1
    40    15    38   1
    41    16    39   1
    42    16    40   1
    43    17    41   1
    44    17    42   1
    45    18    43   1
    46    18    44   1
@<TRIPOS>SUBSTRUCTURE
     1  MOL      1

