@<TRIPOS>MOLECULE
2pcp_ligand_022
    44    46
SMALL
GAST_HUCK
****
This file was generated by PARSER (from files_GN.cpp)

@<TRIPOS>ATOM
      1 CP        -10.7775  -26.0584  -15.8751 C.3         1 MOL      -0.0434
      2 CA        -14.3886  -29.7967  -15.4624 C.ar        1 MOL      -0.0018
      3 CB        -15.3892  -30.7900  -15.2611 C.ar        1 MOL      -0.0343
      4 CC        -16.5316  -30.9205  -16.0694 C.ar        1 MOL      -0.0322
      5 CD        -16.7533  -30.0229  -17.1202 C.ar        1 MOL      -0.0340
      6 CE        -15.8104  -29.0165  -17.3631 C.ar        1 MOL      -0.0322
      7 CF        -14.6628  -28.9163  -16.5547 C.ar        1 MOL      -0.0343
      8 CG        -13.1341  -29.7146  -14.5696 C.3         1 MOL      -0.0135
      9 CH        -13.5259  -29.6093  -13.0337 C.3         1 MOL      -0.0293
     10 CI        -13.9048  -30.8727  -12.2037 C.3         1 MOL      -0.0551
     11 CJ        -12.9388  -32.0596  -12.4298 C.3         1 MOL      -0.0541
     12 CK        -12.6826  -32.3354  -13.9279 C.3         1 MOL      -0.0551
     13 CL        -12.2773  -31.0511  -14.7050 C.3         1 MOL      -0.0293
     14 NM        -12.1692  -28.5236  -14.8396 N.4         1 MOL       0.1961
     15 CN        -11.3255  -28.5433  -16.0989 C.3         1 MOL      -0.0361
     16 CO        -10.2036  -27.4732  -16.1122 C.3         1 MOL      -0.0123
     17 CQ        -11.5829  -26.0350  -14.5584 C.3         1 MOL      -0.0123
     18 CR        -12.6813  -27.1229  -14.5414 C.3         1 MOL      -0.0361
     19 H1         -9.9561  -25.3373  -15.8204 H           1 MOL       0.0269
     20 H2        -11.4192  -25.7733  -16.7168 H           1 MOL       0.0269
     21 H3        -15.3156  -31.4608  -14.5085 H           1 MOL       0.0852
     22 H4        -17.2097  -31.6703  -15.8939 H           1 MOL       0.0698
     23 H5        -17.5941  -30.0979  -17.6999 H           1 MOL       0.0856
     24 H6        -15.9628  -28.3518  -18.1264 H           1 MOL       0.0698
     25 H7        -14.0410  -28.1578  -16.7964 H           1 MOL       0.0852
     26 H8        -14.3579  -28.9097  -12.9263 H           1 MOL       0.0227
     27 H9        -12.6797  -29.1762  -12.4851 H           1 MOL       0.0227
     28 H10       -14.9287  -31.1841  -12.4081 H           1 MOL       0.0260
     29 H11       -13.8774  -30.6137  -11.1365 H           1 MOL       0.0260
     30 H12       -13.3547  -32.9578  -11.9612 H           1 MOL       0.0265
     31 H13       -11.9789  -31.8470  -11.9454 H           1 MOL       0.0265
     32 H14       -13.5537  -32.8161  -14.3769 H           1 MOL       0.0260
     33 H15       -11.8665  -33.0643  -14.0042 H           1 MOL       0.0260
     34 H16       -11.2574  -30.8432  -14.3688 H           1 MOL       0.0227
     35 H17       -12.2170  -31.3300  -15.7585 H           1 MOL       0.0227
     36 H18       -11.4578  -28.6470  -14.1179 H           1 MOL       0.1993
     37 H19       -10.8067  -29.4947  -16.2079 H           1 MOL       0.0815
     38 H20       -11.9136  -28.4046  -17.0012 H           1 MOL       0.0815
     39 H21        -9.4729  -27.7030  -15.3344 H           1 MOL       0.0317
     40 H22        -9.6871  -27.4912  -17.0765 H           1 MOL       0.0317
     41 H23       -12.0510  -25.0550  -14.4454 H           1 MOL       0.0317
     42 H24       -10.9035  -26.1876  -13.7166 H           1 MOL       0.0317
     43 H25       -13.1096  -27.0683  -13.5442 H           1 MOL       0.0815
     44 H26       -13.4598  -26.8083  -15.2284 H           1 MOL       0.0815
@<TRIPOS>BOND
     1     1    17   1
     2     1    16   1
     3    16    15   1
     4    15    14   1
     5    14    18   1
     6    14     8   1
     7     8    13   1
     8     8     9   1
     9     8     2   1
    10     2     7  ar
    11     2     3  ar
    12     3     4  ar
    13     4     5  ar
    14     5     6  ar
    15     6     7  ar
    16     9    10   1
    17    10    11   1
    18    11    12   1
    19    12    13   1
    20    18    17   1
    21     1    19   1
    22     1    20   1
    23     3    21   1
    24     4    22   1
    25     5    23   1
    26     6    24   1
    27     7    25   1
    28     9    26   1
    29     9    27   1
    30    10    28   1
    31    10    29   1
    32    11    30   1
    33    11    31   1
    34    12    32   1
    35    12    33   1
    36    13    34   1
    37    13    35   1
    38    14    36   1
    39    15    37   1
    40    15    38   1
    41    16    39   1
    42    16    40   1
    43    17    41   1
    44    17    42   1
    45    18    43   1
    46    18    44   1
@<TRIPOS>SUBSTRUCTURE
     1  MOL      1

