@<TRIPOS>MOLECULE
2pcp_ligand_051
    44    46
SMALL
GAST_HUCK
****
This file was generated by PARSER (from files_GN.cpp)

@<TRIPOS>ATOM
      1 CP         -9.6246  -25.9480  -17.5178 C.3         1 MOL      -0.0434
      2 CA         -9.1671  -27.4450  -12.6366 C.ar        1 MOL      -0.0018
      3 CB         -9.9242  -26.2822  -12.2968 C.ar        1 MOL      -0.0343
      4 CC         -9.4263  -25.2851  -11.4479 C.ar        1 MOL      -0.0322
      5 CD         -8.1509  -25.4107  -10.8799 C.ar        1 MOL      -0.0340
      6 CE         -7.3805  -26.5489  -11.1724 C.ar        1 MOL      -0.0322
      7 CF         -7.8814  -27.5456  -12.0251 C.ar        1 MOL      -0.0343
      8 CG         -9.6759  -28.3996  -13.7346 C.3         1 MOL      -0.0135
      9 CH         -8.8489  -29.7484  -13.7707 C.3         1 MOL      -0.0293
     10 CI         -9.4904  -30.9011  -14.5930 C.3         1 MOL      -0.0551
     11 CJ        -10.8462  -31.3141  -13.9740 C.3         1 MOL      -0.0541
     12 CK        -11.8199  -30.1171  -13.8908 C.3         1 MOL      -0.0551
     13 CL        -11.1583  -28.8256  -13.3160 C.3         1 MOL      -0.0293
     14 NM         -9.4762  -27.7684  -15.1390 N.4         1 MOL       0.1961
     15 CN         -8.7450  -26.4451  -15.2030 C.3         1 MOL      -0.0361
     16 CO         -8.3692  -25.9760  -16.6177 C.3         1 MOL      -0.0123
     17 CQ        -10.3110  -27.3263  -17.5056 C.3         1 MOL      -0.0123
     18 CR        -10.6559  -27.7506  -16.0638 C.3         1 MOL      -0.0361
     19 H1        -10.3272  -25.1905  -17.1549 H           1 MOL       0.0269
     20 H2         -9.3421  -25.6916  -18.5399 H           1 MOL       0.0269
     21 H3        -10.8293  -26.1070  -12.7338 H           1 MOL       0.0852
     22 H4         -9.9861  -24.4593  -11.2435 H           1 MOL       0.0698
     23 H5         -7.7880  -24.6793  -10.2662 H           1 MOL       0.0856
     24 H6         -6.4432  -26.6310  -10.7716 H           1 MOL       0.0698
     25 H7         -7.2539  -28.3161  -12.2538 H           1 MOL       0.0852
     26 H8         -8.7101  -30.1229  -12.7511 H           1 MOL       0.0227
     27 H9         -7.8523  -29.5664  -14.1844 H           1 MOL       0.0227
     28 H10        -8.8227  -31.7679  -14.5897 H           1 MOL       0.0260
     29 H11        -9.6327  -30.6020  -15.6348 H           1 MOL       0.0260
     30 H12       -10.6801  -31.7156  -12.9686 H           1 MOL       0.0265
     31 H13       -11.2993  -32.1069  -14.5784 H           1 MOL       0.0265
     32 H14       -12.6619  -30.3968  -13.2498 H           1 MOL       0.0260
     33 H15       -12.2526  -29.9398  -14.8731 H           1 MOL       0.0260
     34 H16       -11.8497  -28.0059  -13.5086 H           1 MOL       0.0227
     35 H17       -11.1720  -28.9743  -12.2372 H           1 MOL       0.0227
     36 H18        -8.8300  -28.3907  -15.6283 H           1 MOL       0.1993
     37 H19        -9.3546  -25.6534  -14.7576 H           1 MOL       0.0815
     38 H20        -7.7964  -26.5130  -14.6608 H           1 MOL       0.0815
     39 H21        -7.9325  -24.9795  -16.5457 H           1 MOL       0.0317
     40 H22        -7.6103  -26.6451  -17.0280 H           1 MOL       0.0317
     41 H23        -9.6467  -28.0709  -17.9496 H           1 MOL       0.0317
     42 H24       -11.2262  -27.2965  -18.0989 H           1 MOL       0.0317
     43 H25       -11.4501  -27.1082  -15.6725 H           1 MOL       0.0815
     44 H26       -11.0361  -28.7530  -16.1876 H           1 MOL       0.0815
@<TRIPOS>BOND
     1     1    17   1
     2     1    16   1
     3    16    15   1
     4    15    14   1
     5    14    18   1
     6    14     8   1
     7     8    13   1
     8     8     9   1
     9     8     2   1
    10     2     7  ar
    11     2     3  ar
    12     3     4  ar
    13     4     5  ar
    14     5     6  ar
    15     6     7  ar
    16     9    10   1
    17    10    11   1
    18    11    12   1
    19    12    13   1
    20    18    17   1
    21     1    19   1
    22     1    20   1
    23     3    21   1
    24     4    22   1
    25     5    23   1
    26     6    24   1
    27     7    25   1
    28     9    26   1
    29     9    27   1
    30    10    28   1
    31    10    29   1
    32    11    30   1
    33    11    31   1
    34    12    32   1
    35    12    33   1
    36    13    34   1
    37    13    35   1
    38    14    36   1
    39    15    37   1
    40    15    38   1
    41    16    39   1
    42    16    40   1
    43    17    41   1
    44    17    42   1
    45    18    43   1
    46    18    44   1
@<TRIPOS>SUBSTRUCTURE
     1  MOL      1

