@<TRIPOS>MOLECULE
2pcp_ligand_013
    44    46
SMALL
GAST_HUCK
****
This file was generated by PARSER (from files_GN.cpp)

@<TRIPOS>ATOM
      1 CP         -7.1918  -31.8019  -14.2987 C.3         1 MOL      -0.0434
      2 CA        -10.8556  -34.2290  -14.1124 C.ar        1 MOL      -0.0018
      3 CB        -11.3643  -35.5089  -13.7431 C.ar        1 MOL      -0.0343
      4 CC        -11.0955  -36.6690  -14.4927 C.ar        1 MOL      -0.0322
      5 CD        -10.3419  -36.5886  -15.6722 C.ar        1 MOL      -0.0340
      6 CE         -9.8544  -35.3429  -16.0913 C.ar        1 MOL      -0.0322
      7 CF        -10.1152  -34.1919  -15.3259 C.ar        1 MOL      -0.0343
      8 CG        -11.2018  -32.9449  -13.3478 C.3         1 MOL      -0.0135
      9 CH        -12.4331  -32.3108  -14.1245 C.3         1 MOL      -0.0293
     10 CI        -13.2255  -31.2716  -13.2880 C.3         1 MOL      -0.0551
     11 CJ        -13.8472  -31.9014  -12.0046 C.3         1 MOL      -0.0541
     12 CK        -13.2046  -33.2570  -11.5961 C.3         1 MOL      -0.0551
     13 CL        -11.6698  -33.2192  -11.8368 C.3         1 MOL      -0.0293
     14 NM        -10.0150  -31.9663  -13.2134 N.4         1 MOL       0.1961
     15 CN         -9.6215  -31.0467  -14.3531 C.3         1 MOL      -0.0361
     16 CO         -8.1411  -30.5805  -14.3684 C.3         1 MOL      -0.0123
     17 CQ         -7.5456  -32.8091  -13.1673 C.3         1 MOL      -0.0123
     18 CR         -8.8456  -32.4624  -12.3936 C.3         1 MOL      -0.0361
     19 H1         -7.2263  -32.3253  -15.2595 H           1 MOL       0.0269
     20 H2         -6.1679  -31.4420  -14.1619 H           1 MOL       0.0269
     21 H3        -11.9657  -35.6269  -12.9296 H           1 MOL       0.0852
     22 H4        -11.4678  -37.5733  -14.1929 H           1 MOL       0.0698
     23 H5        -10.1645  -37.4271  -16.2295 H           1 MOL       0.0856
     24 H6         -9.3110  -35.2719  -16.9557 H           1 MOL       0.0698
     25 H7         -9.7396  -33.3142  -15.6768 H           1 MOL       0.0852
     26 H8        -13.1463  -33.0944  -14.4055 H           1 MOL       0.0227
     27 H9        -12.1331  -31.8541  -15.0645 H           1 MOL       0.0227
     28 H10       -14.0194  -30.8352  -13.9007 H           1 MOL       0.0260
     29 H11       -12.5534  -30.4587  -13.0026 H           1 MOL       0.0260
     30 H12       -14.9180  -32.0592  -12.1523 H           1 MOL       0.0265
     31 H13       -13.7340  -31.1944  -11.1783 H           1 MOL       0.0265
     32 H14       -13.6464  -34.0631  -12.1856 H           1 MOL       0.0260
     33 H15       -13.4176  -33.4630  -10.5425 H           1 MOL       0.0260
     34 H16       -11.3080  -32.4337  -11.1699 H           1 MOL       0.0227
     35 H17       -11.2258  -34.1315  -11.4342 H           1 MOL       0.0227
     36 H18       -10.4080  -31.2695  -12.5793 H           1 MOL       0.1993
     37 H19        -9.8204  -31.4857  -15.3307 H           1 MOL       0.0815
     38 H20       -10.2426  -30.1483  -14.2787 H           1 MOL       0.0815
     39 H21        -7.9367  -30.0119  -15.2810 H           1 MOL       0.0317
     40 H22        -7.9602  -29.9228  -13.5134 H           1 MOL       0.0317
     41 H23        -6.7171  -32.8573  -12.4522 H           1 MOL       0.0317
     42 H24        -7.6506  -33.8089  -13.5925 H           1 MOL       0.0317
     43 H25        -9.1083  -33.3256  -11.7810 H           1 MOL       0.0815
     44 H26        -8.5972  -31.6621  -11.6905 H           1 MOL       0.0815
@<TRIPOS>BOND
     1     1    17   1
     2     1    16   1
     3    16    15   1
     4    15    14   1
     5    14    18   1
     6    14     8   1
     7     8    13   1
     8     8     9   1
     9     8     2   1
    10     2     7  ar
    11     2     3  ar
    12     3     4  ar
    13     4     5  ar
    14     5     6  ar
    15     6     7  ar
    16     9    10   1
    17    10    11   1
    18    11    12   1
    19    12    13   1
    20    18    17   1
    21     1    19   1
    22     1    20   1
    23     3    21   1
    24     4    22   1
    25     5    23   1
    26     6    24   1
    27     7    25   1
    28     9    26   1
    29     9    27   1
    30    10    28   1
    31    10    29   1
    32    11    30   1
    33    11    31   1
    34    12    32   1
    35    12    33   1
    36    13    34   1
    37    13    35   1
    38    14    36   1
    39    15    37   1
    40    15    38   1
    41    16    39   1
    42    16    40   1
    43    17    41   1
    44    17    42   1
    45    18    43   1
    46    18    44   1
@<TRIPOS>SUBSTRUCTURE
     1  MOL      1

