@<TRIPOS>MOLECULE
2pcp_ligand_042
    44    46
SMALL
GAST_HUCK
****
This file was generated by PARSER (from files_GN.cpp)

@<TRIPOS>ATOM
      1 CP         -3.4407  -27.9945  -14.0331 C.3         1 MOL      -0.0434
      2 CA         -8.0674  -26.0364  -12.7834 C.ar        1 MOL      -0.0018
      3 CB         -7.9578  -24.7767  -13.4412 C.ar        1 MOL      -0.0343
      4 CC         -8.0859  -23.5616  -12.7464 C.ar        1 MOL      -0.0322
      5 CD         -8.2980  -23.5667  -11.3580 C.ar        1 MOL      -0.0340
      6 CE         -8.3516  -24.7811  -10.6631 C.ar        1 MOL      -0.0322
      7 CF         -8.2071  -25.9861  -11.3685 C.ar        1 MOL      -0.0343
      8 CG         -7.8891  -27.3639  -13.5448 C.3         1 MOL      -0.0135
      9 CH         -8.7517  -28.4799  -12.8320 C.3         1 MOL      -0.0293
     10 CI         -9.0246  -29.7809  -13.6179 C.3         1 MOL      -0.0551
     11 CJ         -9.7754  -29.5003  -14.9354 C.3         1 MOL      -0.0541
     12 CK         -9.0432  -28.4353  -15.7836 C.3         1 MOL      -0.0551
     13 CL         -8.5798  -27.1832  -14.9813 C.3         1 MOL      -0.0293
     14 NM         -6.4081  -27.8177  -13.4732 N.4         1 MOL       0.1961
     15 CN         -5.3865  -26.8708  -12.8715 C.3         1 MOL      -0.0361
     16 CO         -3.9681  -27.4679  -12.6872 C.3         1 MOL      -0.0123
     17 CQ         -4.4483  -29.0308  -14.5857 C.3         1 MOL      -0.0123
     18 CR         -5.8637  -28.4286  -14.7283 C.3         1 MOL      -0.0361
     19 H1         -3.3239  -27.1607  -14.7326 H           1 MOL       0.0269
     20 H2         -2.4601  -28.4557  -13.8894 H           1 MOL       0.0269
     21 H3         -7.7842  -24.7237  -14.4505 H           1 MOL       0.0852
     22 H4         -8.0386  -22.6766  -13.2578 H           1 MOL       0.0698
     23 H5         -8.4005  -22.6918  -10.8499 H           1 MOL       0.0856
     24 H6         -8.4876  -24.7875   -9.6527 H           1 MOL       0.0698
     25 H7         -8.1743  -26.8368  -10.8147 H           1 MOL       0.0852
     26 H8         -9.7277  -28.0606  -12.5658 H           1 MOL       0.0227
     27 H9         -8.2553  -28.7865  -11.9106 H           1 MOL       0.0227
     28 H10        -9.6391  -30.4450  -13.0031 H           1 MOL       0.0260
     29 H11        -8.0853  -30.3019  -13.8256 H           1 MOL       0.0260
     30 H12       -10.7922  -29.1663  -14.7150 H           1 MOL       0.0265
     31 H13        -9.8397  -30.4332  -15.5033 H           1 MOL       0.0265
     32 H14        -9.7188  -28.1129  -16.5844 H           1 MOL       0.0260
     33 H15        -8.1937  -28.9038  -16.2742 H           1 MOL       0.0260
     34 H16        -7.9170  -26.6100  -15.6384 H           1 MOL       0.0227
     35 H17        -9.4858  -26.5730  -14.8662 H           1 MOL       0.0227
     36 H18        -6.4135  -28.5947  -12.8126 H           1 MOL       0.1993
     37 H19        -5.3025  -25.9676  -13.4882 H           1 MOL       0.0815
     38 H20        -5.6935  -26.5697  -11.8679 H           1 MOL       0.0815
     39 H21        -3.2871  -26.7047  -12.2982 H           1 MOL       0.0317
     40 H22        -4.0030  -28.2951  -11.9705 H           1 MOL       0.0317
     41 H23        -4.4951  -29.8872  -13.9073 H           1 MOL       0.0317
     42 H24        -4.1140  -29.3887  -15.5635 H           1 MOL       0.0317
     43 H25        -5.8643  -27.6972  -15.5418 H           1 MOL       0.0815
     44 H26        -6.4844  -29.2754  -15.0048 H           1 MOL       0.0815
@<TRIPOS>BOND
     1     1    17   1
     2     1    16   1
     3    16    15   1
     4    15    14   1
     5    14    18   1
     6    14     8   1
     7     8    13   1
     8     8     9   1
     9     8     2   1
    10     2     7  ar
    11     2     3  ar
    12     3     4  ar
    13     4     5  ar
    14     5     6  ar
    15     6     7  ar
    16     9    10   1
    17    10    11   1
    18    11    12   1
    19    12    13   1
    20    18    17   1
    21     1    19   1
    22     1    20   1
    23     3    21   1
    24     4    22   1
    25     5    23   1
    26     6    24   1
    27     7    25   1
    28     9    26   1
    29     9    27   1
    30    10    28   1
    31    10    29   1
    32    11    30   1
    33    11    31   1
    34    12    32   1
    35    12    33   1
    36    13    34   1
    37    13    35   1
    38    14    36   1
    39    15    37   1
    40    15    38   1
    41    16    39   1
    42    16    40   1
    43    17    41   1
    44    17    42   1
    45    18    43   1
    46    18    44   1
@<TRIPOS>SUBSTRUCTURE
     1  MOL      1

