@<TRIPOS>MOLECULE
2pcp_ligand_033
    44    46
SMALL
GAST_HUCK
****
This file was generated by PARSER (from files_GN.cpp)

@<TRIPOS>ATOM
      1 CP        -16.6414  -28.9136   -8.6702 C.3         1 MOL      -0.0434
      2 CA        -13.2310  -31.8078  -11.5382 C.ar        1 MOL      -0.0018
      3 CB        -12.1329  -32.2168  -12.3472 C.ar        1 MOL      -0.0343
      4 CC        -11.0923  -33.0446  -11.8857 C.ar        1 MOL      -0.0322
      5 CD        -11.0821  -33.4728  -10.5520 C.ar        1 MOL      -0.0340
      6 CE        -12.1413  -33.1124   -9.7115 C.ar        1 MOL      -0.0322
      7 CF        -13.2021  -32.3302  -10.2071 C.ar        1 MOL      -0.0343
      8 CG        -14.3588  -30.8882  -12.0623 C.3         1 MOL      -0.0135
      9 CH        -13.8201  -29.6039  -12.8218 C.3         1 MOL      -0.0293
     10 CI        -13.3536  -29.7010  -14.3063 C.3         1 MOL      -0.0551
     11 CJ        -14.2498  -30.6046  -15.1895 C.3         1 MOL      -0.0541
     12 CK        -14.6297  -31.9487  -14.5203 C.3         1 MOL      -0.0551
     13 CL        -15.2185  -31.7168  -13.1029 C.3         1 MOL      -0.0293
     14 NM        -15.2244  -30.4066  -10.8639 N.4         1 MOL       0.1961
     15 CN        -16.6085  -29.8378  -11.0640 C.3         1 MOL      -0.0361
     16 CO        -17.4029  -29.7330   -9.7345 C.3         1 MOL      -0.0123
     17 CQ        -15.2052  -29.4650   -8.4980 C.3         1 MOL      -0.0123
     18 CR        -14.4913  -29.5248   -9.8718 C.3         1 MOL      -0.0361
     19 H1        -16.6052  -27.8627   -8.9726 H           1 MOL       0.0269
     20 H2        -17.1713  -28.9729   -7.7151 H           1 MOL       0.0269
     21 H3        -12.0539  -31.9303  -13.3120 H           1 MOL       0.0852
     22 H4        -10.3319  -33.3198  -12.5125 H           1 MOL       0.0698
     23 H5        -10.3171  -34.0497  -10.1990 H           1 MOL       0.0856
     24 H6        -12.1447  -33.4183   -8.7357 H           1 MOL       0.0698
     25 H7        -13.9549  -32.1476   -9.5479 H           1 MOL       0.0852
     26 H8        -12.9956  -29.1708  -12.2513 H           1 MOL       0.0227
     27 H9        -14.6178  -28.8615  -12.8227 H           1 MOL       0.0227
     28 H10       -12.3199  -30.0402  -14.3634 H           1 MOL       0.0260
     29 H11       -13.3491  -28.6926  -14.7360 H           1 MOL       0.0260
     30 H12       -13.7354  -30.8042  -16.1348 H           1 MOL       0.0265
     31 H13       -15.1679  -30.0577  -15.4249 H           1 MOL       0.0265
     32 H14       -13.7822  -32.6282  -14.4908 H           1 MOL       0.0260
     33 H15       -15.3907  -32.4314  -15.1424 H           1 MOL       0.0260
     34 H16       -16.1344  -31.1788  -13.3325 H           1 MOL       0.0227
     35 H17       -15.5074  -32.6791  -12.6713 H           1 MOL       0.0227
     36 H18       -15.4452  -31.2600  -10.3550 H           1 MOL       0.1993
     37 H19       -16.5633  -28.8578  -11.5406 H           1 MOL       0.0815
     38 H20       -17.2264  -30.4957  -11.6705 H           1 MOL       0.0815
     39 H21       -18.3746  -29.2689   -9.9197 H           1 MOL       0.0317
     40 H22       -17.5800  -30.7421   -9.3429 H           1 MOL       0.0317
     41 H23       -15.2397  -30.4688   -8.0643 H           1 MOL       0.0317
     42 H24       -14.6486  -28.8172   -7.8148 H           1 MOL       0.0317
     43 H25       -14.4164  -28.5031  -10.2558 H           1 MOL       0.0815
     44 H26       -13.4719  -29.8755   -9.7026 H           1 MOL       0.0815
@<TRIPOS>BOND
     1     1    17   1
     2     1    16   1
     3    16    15   1
     4    15    14   1
     5    14    18   1
     6    14     8   1
     7     8    13   1
     8     8     9   1
     9     8     2   1
    10     2     7  ar
    11     2     3  ar
    12     3     4  ar
    13     4     5  ar
    14     5     6  ar
    15     6     7  ar
    16     9    10   1
    17    10    11   1
    18    11    12   1
    19    12    13   1
    20    18    17   1
    21     1    19   1
    22     1    20   1
    23     3    21   1
    24     4    22   1
    25     5    23   1
    26     6    24   1
    27     7    25   1
    28     9    26   1
    29     9    27   1
    30    10    28   1
    31    10    29   1
    32    11    30   1
    33    11    31   1
    34    12    32   1
    35    12    33   1
    36    13    34   1
    37    13    35   1
    38    14    36   1
    39    15    37   1
    40    15    38   1
    41    16    39   1
    42    16    40   1
    43    17    41   1
    44    17    42   1
    45    18    43   1
    46    18    44   1
@<TRIPOS>SUBSTRUCTURE
     1  MOL      1

