@<TRIPOS>MOLECULE
2pcp_ligand_041
    44    46
SMALL
GAST_HUCK
****
This file was generated by PARSER (from files_GN.cpp)

@<TRIPOS>ATOM
      1 CP        -12.0678  -35.8549  -16.3377 C.3         1 MOL      -0.0434
      2 CA         -9.7345  -31.5165  -14.8503 C.ar        1 MOL      -0.0018
      3 CB         -9.4686  -30.4856  -15.8040 C.ar        1 MOL      -0.0343
      4 CC        -10.1901  -29.2806  -15.8383 C.ar        1 MOL      -0.0322
      5 CD        -11.2048  -29.0289  -14.8903 C.ar        1 MOL      -0.0340
      6 CE        -11.4725  -29.9978  -13.9152 C.ar        1 MOL      -0.0322
      7 CF        -10.7609  -31.2113  -13.9008 C.ar        1 MOL      -0.0343
      8 CG         -8.9953  -32.8724  -14.8325 C.3         1 MOL      -0.0135
      9 CH         -7.6862  -32.8555  -15.7399 C.3         1 MOL      -0.0293
     10 CI         -6.5798  -31.8431  -15.3338 C.3         1 MOL      -0.0551
     11 CJ         -6.1186  -32.1054  -13.8810 C.3         1 MOL      -0.0541
     12 CK         -7.3322  -32.1502  -12.9174 C.3         1 MOL      -0.0551
     13 CL         -8.3967  -33.1794  -13.3982 C.3         1 MOL      -0.0293
     14 NM         -9.9137  -34.0846  -15.1564 N.4         1 MOL       0.1961
     15 CN         -9.7892  -34.7373  -16.5141 C.3         1 MOL      -0.0361
     16 CO        -10.5665  -36.0752  -16.6286 C.3         1 MOL      -0.0123
     17 CQ        -12.2323  -35.2097  -14.9423 C.3         1 MOL      -0.0123
     18 CR        -11.3738  -33.9232  -14.8043 C.3         1 MOL      -0.0361
     19 H1        -12.5017  -35.2003  -17.1028 H           1 MOL       0.0269
     20 H2        -12.6002  -36.8132  -16.3634 H           1 MOL       0.0269
     21 H3         -8.7406  -30.5966  -16.5131 H           1 MOL       0.0852
     22 H4        -10.0010  -28.5756  -16.5594 H           1 MOL       0.0698
     23 H5        -11.7271  -28.1446  -14.9064 H           1 MOL       0.0856
     24 H6        -12.2070  -29.8239  -13.2187 H           1 MOL       0.0698
     25 H7        -11.0302  -31.8888  -13.1835 H           1 MOL       0.0852
     26 H8         -7.9379  -32.6866  -16.7905 H           1 MOL       0.0227
     27 H9         -7.2124  -33.8342  -15.7055 H           1 MOL       0.0227
     28 H10        -6.9381  -30.8146  -15.4221 H           1 MOL       0.0260
     29 H11        -5.7250  -31.9569  -16.0076 H           1 MOL       0.0260
     30 H12        -5.4227  -31.3193  -13.5729 H           1 MOL       0.0265
     31 H13        -5.5829  -33.0584  -13.8334 H           1 MOL       0.0265
     32 H14        -7.7780  -31.1562  -12.8453 H           1 MOL       0.0260
     33 H15        -6.9867  -32.4319  -11.9246 H           1 MOL       0.0260
     34 H16        -7.9123  -34.1614  -13.4041 H           1 MOL       0.0227
     35 H17        -9.1764  -33.2546  -12.6414 H           1 MOL       0.0227
     36 H18        -9.5910  -34.8232  -14.5280 H           1 MOL       0.1993
     37 H19       -10.1319  -34.0576  -17.2978 H           1 MOL       0.0815
     38 H20        -8.7563  -35.0088  -16.7402 H           1 MOL       0.0815
     39 H21       -10.4481  -36.4919  -17.6347 H           1 MOL       0.0317
     40 H22       -10.1534  -36.7941  -15.9109 H           1 MOL       0.0317
     41 H23       -11.9416  -35.9309  -14.1722 H           1 MOL       0.0317
     42 H24       -13.2855  -34.9607  -14.7876 H           1 MOL       0.0317
     43 H25       -11.8232  -33.1530  -15.4453 H           1 MOL       0.0815
     44 H26       -11.4598  -33.5985  -13.7673 H           1 MOL       0.0815
@<TRIPOS>BOND
     1     1    17   1
     2     1    16   1
     3    16    15   1
     4    15    14   1
     5    14    18   1
     6    14     8   1
     7     8    13   1
     8     8     9   1
     9     8     2   1
    10     2     7  ar
    11     2     3  ar
    12     3     4  ar
    13     4     5  ar
    14     5     6  ar
    15     6     7  ar
    16     9    10   1
    17    10    11   1
    18    11    12   1
    19    12    13   1
    20    18    17   1
    21     1    19   1
    22     1    20   1
    23     3    21   1
    24     4    22   1
    25     5    23   1
    26     6    24   1
    27     7    25   1
    28     9    26   1
    29     9    27   1
    30    10    28   1
    31    10    29   1
    32    11    30   1
    33    11    31   1
    34    12    32   1
    35    12    33   1
    36    13    34   1
    37    13    35   1
    38    14    36   1
    39    15    37   1
    40    15    38   1
    41    16    39   1
    42    16    40   1
    43    17    41   1
    44    17    42   1
    45    18    43   1
    46    18    44   1
@<TRIPOS>SUBSTRUCTURE
     1  MOL      1

