@<TRIPOS>MOLECULE
2pcp_ligand_038
    44    46
SMALL
GAST_HUCK
****
This file was generated by PARSER (from files_GN.cpp)

@<TRIPOS>ATOM
      1 CP         -6.6644  -30.5419  -16.0268 C.3         1 MOL      -0.0434
      2 CA        -10.8988  -32.3604  -14.0102 C.ar        1 MOL      -0.0018
      3 CB        -11.4294  -33.2682  -14.9730 C.ar        1 MOL      -0.0343
      4 CC        -12.6625  -33.0474  -15.6154 C.ar        1 MOL      -0.0322
      5 CD        -13.3855  -31.8693  -15.3692 C.ar        1 MOL      -0.0340
      6 CE        -12.8643  -30.9135  -14.4810 C.ar        1 MOL      -0.0322
      7 CF        -11.6525  -31.1647  -13.8163 C.ar        1 MOL      -0.0343
      8 CG         -9.5756  -32.6138  -13.2709 C.3         1 MOL      -0.0135
      9 CH         -9.6023  -32.1529  -11.7549 C.3         1 MOL      -0.0293
     10 CI        -10.6696  -32.8589  -10.8633 C.3         1 MOL      -0.0551
     11 CJ        -10.5047  -34.3987  -10.8543 C.3         1 MOL      -0.0541
     12 CK        -10.3422  -34.9610  -12.2860 C.3         1 MOL      -0.0551
     13 CL         -9.2836  -34.1673  -13.1012 C.3         1 MOL      -0.0293
     14 NM         -8.4067  -31.8679  -13.9429 N.4         1 MOL       0.1961
     15 CN         -8.7520  -30.5328  -14.5681 C.3         1 MOL      -0.0361
     16 CO         -7.5136  -29.7230  -15.0289 C.3         1 MOL      -0.0123
     17 CQ         -6.3016  -31.9060  -15.4055 C.3         1 MOL      -0.0123
     18 CR         -7.5632  -32.6603  -14.9094 C.3         1 MOL      -0.0361
     19 H1         -7.2243  -30.7037  -16.9551 H           1 MOL       0.0269
     20 H2         -5.7511  -29.9947  -16.2737 H           1 MOL       0.0269
     21 H3        -10.9324  -34.1174  -15.2265 H           1 MOL       0.0852
     22 H4        -13.0323  -33.7375  -16.2754 H           1 MOL       0.0698
     23 H5        -14.2803  -31.7020  -15.8378 H           1 MOL       0.0856
     24 H6        -13.3692  -30.0404  -14.3223 H           1 MOL       0.0698
     25 H7        -11.3232  -30.4310  -13.1874 H           1 MOL       0.0852
     26 H8         -9.7541  -31.0823  -11.6754 H           1 MOL       0.0227
     27 H9         -8.6148  -32.3248  -11.3074 H           1 MOL       0.0227
     28 H10       -11.6724  -32.6145  -11.2212 H           1 MOL       0.0260
     29 H11       -10.5883  -32.4890   -9.8359 H           1 MOL       0.0260
     30 H12       -11.3760  -34.8612  -10.3824 H           1 MOL       0.0265
     31 H13        -9.6290  -34.6684  -10.2599 H           1 MOL       0.0265
     32 H14       -11.3046  -34.9246  -12.8005 H           1 MOL       0.0260
     33 H15       -10.0386  -36.0104  -12.2270 H           1 MOL       0.0260
     34 H16        -8.3064  -34.3071  -12.6225 H           1 MOL       0.0227
     35 H17        -9.2099  -34.6573  -14.0659 H           1 MOL       0.0227
     36 H18        -7.7628  -31.6287  -13.1814 H           1 MOL       0.1993
     37 H19        -9.4014  -30.6758  -15.4359 H           1 MOL       0.0815
     38 H20        -9.2824  -29.8997  -13.8592 H           1 MOL       0.0815
     39 H21        -7.8405  -28.7959  -15.5067 H           1 MOL       0.0317
     40 H22        -6.9081  -29.4612  -14.1575 H           1 MOL       0.0317
     41 H23        -5.6240  -31.7429  -14.5636 H           1 MOL       0.0317
     42 H24        -5.7811  -32.5159  -16.1492 H           1 MOL       0.0317
     43 H25        -8.1641  -32.9702  -15.7702 H           1 MOL       0.0815
     44 H26        -7.1713  -33.5541  -14.4267 H           1 MOL       0.0815
@<TRIPOS>BOND
     1     1    17   1
     2     1    16   1
     3    16    15   1
     4    15    14   1
     5    14    18   1
     6    14     8   1
     7     8    13   1
     8     8     9   1
     9     8     2   1
    10     2     7  ar
    11     2     3  ar
    12     3     4  ar
    13     4     5  ar
    14     5     6  ar
    15     6     7  ar
    16     9    10   1
    17    10    11   1
    18    11    12   1
    19    12    13   1
    20    18    17   1
    21     1    19   1
    22     1    20   1
    23     3    21   1
    24     4    22   1
    25     5    23   1
    26     6    24   1
    27     7    25   1
    28     9    26   1
    29     9    27   1
    30    10    28   1
    31    10    29   1
    32    11    30   1
    33    11    31   1
    34    12    32   1
    35    12    33   1
    36    13    34   1
    37    13    35   1
    38    14    36   1
    39    15    37   1
    40    15    38   1
    41    16    39   1
    42    16    40   1
    43    17    41   1
    44    17    42   1
    45    18    43   1
    46    18    44   1
@<TRIPOS>SUBSTRUCTURE
     1  MOL      1

