@<TRIPOS>MOLECULE
2pcp_ligand_003
    44    46
SMALL
GAST_HUCK
****
This file was generated by PARSER (from files_GN.cpp)

@<TRIPOS>ATOM
      1 CP        -12.9137  -28.2017  -14.5420 C.3         1 MOL      -0.0434
      2 CA         -7.6169  -28.3273  -14.8164 C.ar        1 MOL      -0.0018
      3 CB         -6.2660  -28.3735  -14.3671 C.ar        1 MOL      -0.0343
      4 CC         -5.4441  -29.5046  -14.5369 C.ar        1 MOL      -0.0322
      5 CD         -5.9476  -30.6574  -15.1550 C.ar        1 MOL      -0.0340
      6 CE         -7.2593  -30.6442  -15.6539 C.ar        1 MOL      -0.0322
      7 CF         -8.0542  -29.4960  -15.5108 C.ar        1 MOL      -0.0343
      8 CG         -8.5178  -27.0833  -14.6399 C.3         1 MOL      -0.0135
      9 CH         -8.3855  -26.3944  -13.2134 C.3         1 MOL      -0.0293
     10 CI         -7.2298  -25.3841  -12.9347 C.3         1 MOL      -0.0551
     11 CJ         -6.9189  -24.4499  -14.1314 C.3         1 MOL      -0.0541
     12 CK         -6.7639  -25.2296  -15.4607 C.3         1 MOL      -0.0551
     13 CL         -8.0493  -26.0495  -15.7440 C.3         1 MOL      -0.0293
     14 NM        -10.0056  -27.4886  -14.8195 N.4         1 MOL       0.1961
     15 CN        -10.4997  -28.4904  -13.7929 C.3         1 MOL      -0.0361
     16 CO        -11.7762  -29.2206  -14.2756 C.3         1 MOL      -0.0123
     17 CQ        -12.4324  -27.0872  -15.4960 C.3         1 MOL      -0.0123
     18 CR        -11.0974  -26.4545  -15.0216 C.3         1 MOL      -0.0361
     19 H1        -13.7736  -28.7159  -14.9837 H           1 MOL       0.0269
     20 H2        -13.2356  -27.7590  -13.5942 H           1 MOL       0.0269
     21 H3         -5.8390  -27.5783  -13.9131 H           1 MOL       0.0852
     22 H4         -4.4748  -29.4895  -14.2107 H           1 MOL       0.0698
     23 H5         -5.3632  -31.4900  -15.2550 H           1 MOL       0.0856
     24 H6         -7.6265  -31.4733  -16.1305 H           1 MOL       0.0698
     25 H7         -8.9818  -29.5473  -15.9299 H           1 MOL       0.0852
     26 H8         -8.3368  -27.1693  -12.4436 H           1 MOL       0.0227
     27 H9         -9.3010  -25.8308  -13.0100 H           1 MOL       0.0227
     28 H10        -6.3186  -25.9069  -12.6459 H           1 MOL       0.0260
     29 H11        -7.5047  -24.7688  -12.0638 H           1 MOL       0.0260
     30 H12        -6.0003  -23.8922  -13.9185 H           1 MOL       0.0265
     31 H13        -7.7269  -23.7175  -14.2259 H           1 MOL       0.0265
     32 H14        -5.8818  -25.8676  -15.4370 H           1 MOL       0.0260
     33 H15        -6.6172  -24.5067  -16.2681 H           1 MOL       0.0260
     34 H16        -8.7962  -25.2778  -15.8807 H           1 MOL       0.0227
     35 H17        -7.9497  -26.5481  -16.7068 H           1 MOL       0.0227
     36 H18       -10.0316  -27.9758  -15.7114 H           1 MOL       0.1993
     37 H19        -9.7538  -29.2556  -13.5742 H           1 MOL       0.0815
     38 H20       -10.7246  -27.9928  -12.8453 H           1 MOL       0.0815
     39 H21       -11.5540  -29.7707  -15.1970 H           1 MOL       0.0317
     40 H22       -12.0997  -29.9434  -13.5195 H           1 MOL       0.0317
     41 H23       -13.1999  -26.3124  -15.5615 H           1 MOL       0.0317
     42 H24       -12.2961  -27.5092  -16.4952 H           1 MOL       0.0317
     43 H25       -10.8498  -25.7519  -15.8104 H           1 MOL       0.0815
     44 H26       -11.2740  -25.8818  -14.1108 H           1 MOL       0.0815
@<TRIPOS>BOND
     1     1    17   1
     2     1    16   1
     3    16    15   1
     4    15    14   1
     5    14    18   1
     6    14     8   1
     7     8    13   1
     8     8     9   1
     9     8     2   1
    10     2     7  ar
    11     2     3  ar
    12     3     4  ar
    13     4     5  ar
    14     5     6  ar
    15     6     7  ar
    16     9    10   1
    17    10    11   1
    18    11    12   1
    19    12    13   1
    20    18    17   1
    21     1    19   1
    22     1    20   1
    23     3    21   1
    24     4    22   1
    25     5    23   1
    26     6    24   1
    27     7    25   1
    28     9    26   1
    29     9    27   1
    30    10    28   1
    31    10    29   1
    32    11    30   1
    33    11    31   1
    34    12    32   1
    35    12    33   1
    36    13    34   1
    37    13    35   1
    38    14    36   1
    39    15    37   1
    40    15    38   1
    41    16    39   1
    42    16    40   1
    43    17    41   1
    44    17    42   1
    45    18    43   1
    46    18    44   1
@<TRIPOS>SUBSTRUCTURE
     1  MOL      1

