@<TRIPOS>MOLECULE
2pcp_ligand_059
    44    46
SMALL
GAST_HUCK
****
This file was generated by PARSER (from files_GN.cpp)

@<TRIPOS>ATOM
      1 CP         -8.3853  -23.7891  -11.8111 C.3         1 MOL      -0.0434
      2 CA         -5.8934  -28.1985  -13.5895 C.ar        1 MOL      -0.0018
      3 CB         -7.2897  -28.5366  -13.4898 C.ar        1 MOL      -0.0343
      4 CC         -7.8198  -29.7671  -13.9159 C.ar        1 MOL      -0.0322
      5 CD         -6.9890  -30.7315  -14.5035 C.ar        1 MOL      -0.0340
      6 CE         -5.6220  -30.4384  -14.6522 C.ar        1 MOL      -0.0322
      7 CF         -5.0961  -29.2248  -14.1818 C.ar        1 MOL      -0.0343
      8 CG         -5.3136  -26.8392  -13.1252 C.3         1 MOL      -0.0135
      9 CH         -4.4612  -26.9439  -11.7952 C.3         1 MOL      -0.0293
     10 CI         -3.0421  -27.5628  -11.8424 C.3         1 MOL      -0.0551
     11 CJ         -2.1648  -26.9494  -12.9548 C.3         1 MOL      -0.0541
     12 CK         -2.8737  -26.8604  -14.3256 C.3         1 MOL      -0.0551
     13 CL         -4.3032  -26.2635  -14.2108 C.3         1 MOL      -0.0293
     14 NM         -6.4865  -25.8445  -12.8922 N.4         1 MOL       0.1961
     15 CN         -6.3259  -24.3717  -13.1814 C.3         1 MOL      -0.0361
     16 CO         -7.6761  -23.6139  -13.1713 C.3         1 MOL      -0.0123
     17 CQ         -8.5795  -25.2841  -11.4993 C.3         1 MOL      -0.0123
     18 CR         -7.2228  -26.0248  -11.5700 C.3         1 MOL      -0.0361
     19 H1         -7.8010  -23.3177  -11.0185 H           1 MOL       0.0269
     20 H2         -9.3577  -23.2997  -11.8465 H           1 MOL       0.0269
     21 H3         -7.9777  -27.8856  -13.1037 H           1 MOL       0.0852
     22 H4         -8.8234  -29.9626  -13.8082 H           1 MOL       0.0698
     23 H5         -7.3708  -31.6242  -14.8321 H           1 MOL       0.0856
     24 H6         -5.0182  -31.1342  -15.0858 H           1 MOL       0.0698
     25 H7         -4.0937  -29.0950  -14.2935 H           1 MOL       0.0852
     26 H8         -5.0335  -27.5048  -11.0566 H           1 MOL       0.0227
     27 H9         -4.3321  -25.9329  -11.3989 H           1 MOL       0.0227
     28 H10        -3.1036  -28.6458  -11.9518 H           1 MOL       0.0260
     29 H11        -2.5460  -27.3642  -10.8861 H           1 MOL       0.0260
     30 H12        -1.2425  -27.5350  -13.0541 H           1 MOL       0.0265
     31 H13        -1.8863  -25.9401  -12.6415 H           1 MOL       0.0265
     32 H14        -2.8797  -27.8405  -14.8207 H           1 MOL       0.0260
     33 H15        -2.2856  -26.1897  -14.9554 H           1 MOL       0.0260
     34 H16        -4.0804  -25.2245  -13.9696 H           1 MOL       0.0227
     35 H17        -4.7996  -26.2725  -15.1802 H           1 MOL       0.0227
     36 H18        -7.1708  -26.0930  -13.6078 H           1 MOL       0.1993
     37 H19        -5.6208  -23.9210  -12.4797 H           1 MOL       0.0815
     38 H20        -5.9573  -24.2086  -14.1953 H           1 MOL       0.0815
     39 H21        -7.5162  -22.5550  -13.3842 H           1 MOL       0.0317
     40 H22        -8.3062  -24.0209  -13.9704 H           1 MOL       0.0317
     41 H23        -9.2800  -25.7316  -12.2098 H           1 MOL       0.0317
     42 H24        -8.9977  -25.3772  -10.4970 H           1 MOL       0.0317
     43 H25        -6.6121  -25.6615  -10.7449 H           1 MOL       0.0815
     44 H26        -7.4216  -27.0754  -11.3671 H           1 MOL       0.0815
@<TRIPOS>BOND
     1     1    17   1
     2     1    16   1
     3    16    15   1
     4    15    14   1
     5    14    18   1
     6    14     8   1
     7     8    13   1
     8     8     9   1
     9     8     2   1
    10     2     7  ar
    11     2     3  ar
    12     3     4  ar
    13     4     5  ar
    14     5     6  ar
    15     6     7  ar
    16     9    10   1
    17    10    11   1
    18    11    12   1
    19    12    13   1
    20    18    17   1
    21     1    19   1
    22     1    20   1
    23     3    21   1
    24     4    22   1
    25     5    23   1
    26     6    24   1
    27     7    25   1
    28     9    26   1
    29     9    27   1
    30    10    28   1
    31    10    29   1
    32    11    30   1
    33    11    31   1
    34    12    32   1
    35    12    33   1
    36    13    34   1
    37    13    35   1
    38    14    36   1
    39    15    37   1
    40    15    38   1
    41    16    39   1
    42    16    40   1
    43    17    41   1
    44    17    42   1
    45    18    43   1
    46    18    44   1
@<TRIPOS>SUBSTRUCTURE
     1  MOL      1

