@<TRIPOS>MOLECULE
2pcp_ligand_025
    44    46
SMALL
GAST_HUCK
****
This file was generated by PARSER (from files_GN.cpp)

@<TRIPOS>ATOM
      1 CP         -7.4626  -31.6306  -13.8877 C.3         1 MOL      -0.0434
      2 CA        -11.7853  -34.1130  -13.6367 C.ar        1 MOL      -0.0018
      3 CB        -12.9912  -33.3881  -13.8681 C.ar        1 MOL      -0.0343
      4 CC        -13.6823  -33.4418  -15.0962 C.ar        1 MOL      -0.0322
      5 CD        -13.1723  -34.2082  -16.1526 C.ar        1 MOL      -0.0340
      6 CE        -11.9866  -34.9299  -15.9727 C.ar        1 MOL      -0.0322
      7 CF        -11.3248  -34.8949  -14.7350 C.ar        1 MOL      -0.0343
      8 CG        -10.9712  -34.0177  -12.3355 C.3         1 MOL      -0.0135
      9 CH        -11.8102  -33.3644  -11.1499 C.3         1 MOL      -0.0293
     10 CI        -11.1743  -33.4346   -9.7322 C.3         1 MOL      -0.0551
     11 CJ        -10.8782  -34.8958   -9.3223 C.3         1 MOL      -0.0541
     12 CK        -10.0450  -35.6045  -10.4096 C.3         1 MOL      -0.0551
     13 CL        -10.7081  -35.4908  -11.8111 C.3         1 MOL      -0.0293
     14 NM         -9.6912  -33.1771  -12.5509 N.4         1 MOL       0.1961
     15 CN         -9.9164  -31.8594  -13.2625 C.3         1 MOL      -0.0361
     16 CO         -8.6785  -30.9235  -13.2504 C.3         1 MOL      -0.0123
     17 CQ         -7.2028  -32.9712  -13.1686 C.3         1 MOL      -0.0123
     18 CR         -8.4858  -33.8492  -13.1580 C.3         1 MOL      -0.0361
     19 H1         -7.6608  -31.8205  -14.9464 H           1 MOL       0.0269
     20 H2         -6.5797  -30.9897  -13.8228 H           1 MOL       0.0269
     21 H3        -13.3882  -32.7889  -13.1486 H           1 MOL       0.0852
     22 H4        -14.5513  -32.9178  -15.2211 H           1 MOL       0.0698
     23 H5        -13.6649  -34.2406  -17.0476 H           1 MOL       0.0856
     24 H6        -11.6087  -35.4846  -16.7445 H           1 MOL       0.0698
     25 H7        -10.4859  -35.4632  -14.6542 H           1 MOL       0.0852
     26 H8        -12.7801  -33.8671  -11.0830 H           1 MOL       0.0227
     27 H9        -12.0293  -32.3152  -11.3403 H           1 MOL       0.0227
     28 H10       -11.8666  -33.0036   -9.0016 H           1 MOL       0.0260
     29 H11       -10.2517  -32.8471   -9.6973 H           1 MOL       0.0260
     30 H12       -11.8224  -35.4320   -9.1773 H           1 MOL       0.0265
     31 H13       -10.3361  -34.9089   -8.3738 H           1 MOL       0.0265
     32 H14        -9.9418  -36.6599  -10.1462 H           1 MOL       0.0260
     33 H15        -9.0449  -35.1722  -10.4309 H           1 MOL       0.0260
     34 H16       -10.0770  -36.0513  -12.4966 H           1 MOL       0.0227
     35 H17       -11.6610  -36.0300  -11.7715 H           1 MOL       0.0227
     36 H18        -9.3708  -32.9390  -11.6084 H           1 MOL       0.1993
     37 H19       -10.1899  -32.0390  -14.3060 H           1 MOL       0.0815
     38 H20       -10.7350  -31.3010  -12.8142 H           1 MOL       0.0815
     39 H21        -8.9022  -30.0122  -13.8138 H           1 MOL       0.0317
     40 H22        -8.4443  -30.6379  -12.2202 H           1 MOL       0.0317
     41 H23        -6.8778  -32.7770  -12.1444 H           1 MOL       0.0317
     42 H24        -6.3926  -33.4998  -13.6783 H           1 MOL       0.0317
     43 H25        -8.6967  -34.1475  -14.1834 H           1 MOL       0.0815
     44 H26        -8.2195  -34.7390  -12.5956 H           1 MOL       0.0815
@<TRIPOS>BOND
     1     1    17   1
     2     1    16   1
     3    16    15   1
     4    15    14   1
     5    14    18   1
     6    14     8   1
     7     8    13   1
     8     8     9   1
     9     8     2   1
    10     2     7  ar
    11     2     3  ar
    12     3     4  ar
    13     4     5  ar
    14     5     6  ar
    15     6     7  ar
    16     9    10   1
    17    10    11   1
    18    11    12   1
    19    12    13   1
    20    18    17   1
    21     1    19   1
    22     1    20   1
    23     3    21   1
    24     4    22   1
    25     5    23   1
    26     6    24   1
    27     7    25   1
    28     9    26   1
    29     9    27   1
    30    10    28   1
    31    10    29   1
    32    11    30   1
    33    11    31   1
    34    12    32   1
    35    12    33   1
    36    13    34   1
    37    13    35   1
    38    14    36   1
    39    15    37   1
    40    15    38   1
    41    16    39   1
    42    16    40   1
    43    17    41   1
    44    17    42   1
    45    18    43   1
    46    18    44   1
@<TRIPOS>SUBSTRUCTURE
     1  MOL      1

