@<TRIPOS>MOLECULE
2pcp_ligand_018
    44    46
SMALL
GAST_HUCK
****
This file was generated by PARSER (from files_GN.cpp)

@<TRIPOS>ATOM
      1 CP         -6.6049  -24.6619  -14.1049 C.3         1 MOL      -0.0434
      2 CA        -10.3329  -28.5858  -13.8159 C.ar        1 MOL      -0.0018
      3 CB        -11.2813  -29.5645  -14.2304 C.ar        1 MOL      -0.0343
      4 CC        -12.6456  -29.5038  -13.8925 C.ar        1 MOL      -0.0322
      5 CD        -13.1295  -28.4431  -13.1128 C.ar        1 MOL      -0.0340
      6 CE        -12.2425  -27.4519  -12.6818 C.ar        1 MOL      -0.0322
      7 CF        -10.8806  -27.5355  -13.0232 C.ar        1 MOL      -0.0343
      8 CG         -8.8226  -28.6686  -14.1273 C.3         1 MOL      -0.0135
      9 CH         -8.1475  -29.5423  -12.9937 C.3         1 MOL      -0.0293
     10 CI         -8.3613  -31.0787  -13.0347 C.3         1 MOL      -0.0551
     11 CJ         -7.7773  -31.6635  -14.3406 C.3         1 MOL      -0.0541
     12 CK         -8.4533  -31.0123  -15.5681 C.3         1 MOL      -0.0551
     13 CL         -8.5022  -29.4510  -15.4877 C.3         1 MOL      -0.0293
     14 NM         -8.2544  -27.2058  -14.1509 N.4         1 MOL       0.1961
     15 CN         -7.5215  -26.7174  -12.9127 C.3         1 MOL      -0.0361
     16 CO         -7.3477  -25.1767  -12.8517 C.3         1 MOL      -0.0123
     17 CQ         -7.3237  -25.1531  -15.3791 C.3         1 MOL      -0.0123
     18 CR         -7.5207  -26.6910  -15.3653 C.3         1 MOL      -0.0361
     19 H1         -6.5792  -23.5698  -14.0944 H           1 MOL       0.0269
     20 H2         -5.5723  -25.0250  -14.0989 H           1 MOL       0.0269
     21 H3        -11.0023  -30.3647  -14.7846 H           1 MOL       0.0852
     22 H4        -13.2878  -30.2351  -14.2073 H           1 MOL       0.0698
     23 H5        -14.1162  -28.4052  -12.8581 H           1 MOL       0.0856
     24 H6        -12.5830  -26.6766  -12.1113 H           1 MOL       0.0698
     25 H7        -10.2996  -26.7843  -12.6629 H           1 MOL       0.0852
     26 H8         -8.4760  -29.2118  -12.0096 H           1 MOL       0.0227
     27 H9         -7.0683  -29.3871  -13.0461 H           1 MOL       0.0227
     28 H10        -9.4237  -31.3232  -12.9557 H           1 MOL       0.0260
     29 H11        -7.8491  -31.5414  -12.1849 H           1 MOL       0.0260
     30 H12        -7.9424  -32.7470  -14.3643 H           1 MOL       0.0265
     31 H13        -6.6962  -31.4871  -14.3775 H           1 MOL       0.0265
     32 H14        -9.4474  -31.4424  -15.6844 H           1 MOL       0.0260
     33 H15        -7.8974  -31.3067  -16.4630 H           1 MOL       0.0260
     34 H16        -7.4824  -29.1986  -15.7854 H           1 MOL       0.0227
     35 H17        -9.1714  -29.0928  -16.2707 H           1 MOL       0.0227
     36 H18        -9.0945  -26.6287  -14.1838 H           1 MOL       0.1993
     37 H19        -8.0495  -26.9938  -11.9973 H           1 MOL       0.0815
     38 H20        -6.5284  -27.1699  -12.8590 H           1 MOL       0.0815
     39 H21        -8.3302  -24.7028  -12.7860 H           1 MOL       0.0317
     40 H22        -6.7800  -24.9061  -11.9576 H           1 MOL       0.0317
     41 H23        -6.7397  -24.8668  -16.2588 H           1 MOL       0.0317
     42 H24        -8.3018  -24.6719  -15.4449 H           1 MOL       0.0317
     43 H25        -8.0974  -26.9118  -16.2652 H           1 MOL       0.0815
     44 H26        -6.5409  -27.1690  -15.4468 H           1 MOL       0.0815
@<TRIPOS>BOND
     1     1    17   1
     2     1    16   1
     3    16    15   1
     4    15    14   1
     5    14    18   1
     6    14     8   1
     7     8    13   1
     8     8     9   1
     9     8     2   1
    10     2     7  ar
    11     2     3  ar
    12     3     4  ar
    13     4     5  ar
    14     5     6  ar
    15     6     7  ar
    16     9    10   1
    17    10    11   1
    18    11    12   1
    19    12    13   1
    20    18    17   1
    21     1    19   1
    22     1    20   1
    23     3    21   1
    24     4    22   1
    25     5    23   1
    26     6    24   1
    27     7    25   1
    28     9    26   1
    29     9    27   1
    30    10    28   1
    31    10    29   1
    32    11    30   1
    33    11    31   1
    34    12    32   1
    35    12    33   1
    36    13    34   1
    37    13    35   1
    38    14    36   1
    39    15    37   1
    40    15    38   1
    41    16    39   1
    42    16    40   1
    43    17    41   1
    44    17    42   1
    45    18    43   1
    46    18    44   1
@<TRIPOS>SUBSTRUCTURE
     1  MOL      1

