@<TRIPOS>MOLECULE
2pcp_ligand_015
    44    46
SMALL
GAST_HUCK
****
This file was generated by PARSER (from files_GN.cpp)

@<TRIPOS>ATOM
      1 CP         -5.0726  -24.7440  -12.9603 C.3         1 MOL      -0.0434
      2 CA         -9.2609  -27.2143  -14.8970 C.ar        1 MOL      -0.0018
      3 CB        -10.4283  -27.0572  -14.0917 C.ar        1 MOL      -0.0343
      4 CC        -11.5596  -26.3471  -14.5348 C.ar        1 MOL      -0.0322
      5 CD        -11.5471  -25.7191  -15.7880 C.ar        1 MOL      -0.0340
      6 CE        -10.3971  -25.7995  -16.5864 C.ar        1 MOL      -0.0322
      7 CF         -9.2737  -26.5163  -16.1385 C.ar        1 MOL      -0.0343
      8 CG         -7.9789  -27.8975  -14.3925 C.3         1 MOL      -0.0135
      9 CH         -8.2748  -28.8732  -13.1770 C.3         1 MOL      -0.0293
     10 CI         -9.2531  -30.0438  -13.5216 C.3         1 MOL      -0.0551
     11 CJ         -8.7487  -30.8790  -14.7280 C.3         1 MOL      -0.0541
     12 CK         -8.3646  -29.9880  -15.9370 C.3         1 MOL      -0.0551
     13 CL         -7.3776  -28.8635  -15.4967 C.3         1 MOL      -0.0293
     14 NM         -6.8940  -26.8338  -14.1002 N.4         1 MOL       0.1961
     15 CN         -7.3049  -25.3778  -14.0087 C.3         1 MOL      -0.0361
     16 CO         -6.0804  -24.4264  -14.0833 C.3         1 MOL      -0.0123
     17 CQ         -4.6839  -26.2391  -12.9681 C.3         1 MOL      -0.0123
     18 CR         -5.9459  -27.1428  -12.9661 C.3         1 MOL      -0.0361
     19 H1         -4.1759  -24.1349  -13.0825 H           1 MOL       0.0269
     20 H2         -5.5309  -24.4914  -11.9993 H           1 MOL       0.0269
     21 H3        -10.4725  -27.4315  -13.1437 H           1 MOL       0.0852
     22 H4        -12.3822  -26.2587  -13.9331 H           1 MOL       0.0698
     23 H5        -12.3578  -25.1837  -16.0957 H           1 MOL       0.0856
     24 H6        -10.3554  -25.2975  -17.4708 H           1 MOL       0.0698
     25 H7         -8.4519  -26.4865  -16.7375 H           1 MOL       0.0852
     26 H8         -8.6438  -28.3156  -12.3145 H           1 MOL       0.0227
     27 H9         -7.3503  -29.3567  -12.8396 H           1 MOL       0.0227
     28 H10       -10.2525  -29.6552  -13.7393 H           1 MOL       0.0260
     29 H11        -9.3425  -30.7043  -12.6514 H           1 MOL       0.0260
     30 H12        -9.5308  -31.5800  -15.0315 H           1 MOL       0.0265
     31 H13        -7.8729  -31.4619  -14.4171 H           1 MOL       0.0265
     32 H14        -9.2658  -29.5511  -16.3776 H           1 MOL       0.0260
     33 H15        -7.8905  -30.6047  -16.7040 H           1 MOL       0.0260
     34 H16        -6.4739  -29.3581  -15.1271 H           1 MOL       0.0227
     35 H17        -7.0539  -28.3041  -16.3744 H           1 MOL       0.0227
     36 H18        -6.3036  -26.8558  -14.9382 H           1 MOL       0.1993
     37 H19        -7.9321  -25.0715  -14.8493 H           1 MOL       0.0815
     38 H20        -7.8768  -25.1956  -13.0935 H           1 MOL       0.0815
     39 H21        -5.5914  -24.5400  -15.0577 H           1 MOL       0.0317
     40 H22        -6.4206  -23.3884  -13.9924 H           1 MOL       0.0317
     41 H23        -4.0774  -26.4557  -12.0834 H           1 MOL       0.0317
     42 H24        -4.0776  -26.4597  -13.8522 H           1 MOL       0.0317
     43 H25        -5.5832  -28.1701  -13.0135 H           1 MOL       0.0815
     44 H26        -6.4625  -27.0237  -12.0083 H           1 MOL       0.0815
@<TRIPOS>BOND
     1     1    17   1
     2     1    16   1
     3    16    15   1
     4    15    14   1
     5    14    18   1
     6    14     8   1
     7     8    13   1
     8     8     9   1
     9     8     2   1
    10     2     7  ar
    11     2     3  ar
    12     3     4  ar
    13     4     5  ar
    14     5     6  ar
    15     6     7  ar
    16     9    10   1
    17    10    11   1
    18    11    12   1
    19    12    13   1
    20    18    17   1
    21     1    19   1
    22     1    20   1
    23     3    21   1
    24     4    22   1
    25     5    23   1
    26     6    24   1
    27     7    25   1
    28     9    26   1
    29     9    27   1
    30    10    28   1
    31    10    29   1
    32    11    30   1
    33    11    31   1
    34    12    32   1
    35    12    33   1
    36    13    34   1
    37    13    35   1
    38    14    36   1
    39    15    37   1
    40    15    38   1
    41    16    39   1
    42    16    40   1
    43    17    41   1
    44    17    42   1
    45    18    43   1
    46    18    44   1
@<TRIPOS>SUBSTRUCTURE
     1  MOL      1

