@<TRIPOS>MOLECULE
2pcp_ligand_032
    44    46
SMALL
GAST_HUCK
****
This file was generated by PARSER (from files_GN.cpp)

@<TRIPOS>ATOM
      1 CP        -12.6520  -29.0570  -14.7981 C.3         1 MOL      -0.0434
      2 CA         -9.6914  -33.2125  -15.2067 C.ar        1 MOL      -0.0018
      3 CB         -8.7613  -33.4635  -16.2596 C.ar        1 MOL      -0.0343
      4 CC         -8.9509  -34.4940  -17.2013 C.ar        1 MOL      -0.0322
      5 CD        -10.1042  -35.2986  -17.1520 C.ar        1 MOL      -0.0340
      6 CE        -11.0626  -35.0541  -16.1593 C.ar        1 MOL      -0.0322
      7 CF        -10.8632  -34.0285  -15.2168 C.ar        1 MOL      -0.0343
      8 CG         -9.4618  -32.1836  -14.0889 C.3         1 MOL      -0.0135
      9 CH         -9.5229  -32.8814  -12.6637 C.3         1 MOL      -0.0293
     10 CI         -8.4168  -33.9411  -12.4266 C.3         1 MOL      -0.0551
     11 CJ         -7.0224  -33.2780  -12.4776 C.3         1 MOL      -0.0541
     12 CK         -6.8171  -32.5412  -13.8184 C.3         1 MOL      -0.0551
     13 CL         -7.9930  -31.5592  -14.1022 C.3         1 MOL      -0.0293
     14 NM        -10.4965  -31.0376  -14.0794 N.4         1 MOL       0.1961
     15 CN        -10.2203  -29.8484  -14.9744 C.3         1 MOL      -0.0361
     16 CO        -11.1663  -28.6504  -14.6840 C.3         1 MOL      -0.0123
     17 CQ        -12.9343  -30.2811  -13.8964 C.3         1 MOL      -0.0123
     18 CR        -11.9495  -31.4373  -14.2264 C.3         1 MOL      -0.0361
     19 H1        -13.2934  -28.2224  -14.4955 H           1 MOL       0.0269
     20 H2        -12.8862  -29.3083  -15.8400 H           1 MOL       0.0269
     21 H3         -7.9115  -32.9049  -16.3620 H           1 MOL       0.0852
     22 H4         -8.2629  -34.6539  -17.9387 H           1 MOL       0.0698
     23 H5        -10.2420  -36.0480  -17.8351 H           1 MOL       0.0856
     24 H6        -11.9085  -35.6294  -16.1200 H           1 MOL       0.0698
     25 H7        -11.5953  -33.8983  -14.5102 H           1 MOL       0.0852
     26 H8        -10.4695  -33.3847  -12.4842 H           1 MOL       0.0227
     27 H9         -9.4460  -32.1210  -11.8804 H           1 MOL       0.0227
     28 H10        -8.4840  -34.7259  -13.1823 H           1 MOL       0.0260
     29 H11        -8.5657  -34.4121  -11.4504 H           1 MOL       0.0260
     30 H12        -6.2443  -34.0304  -12.3329 H           1 MOL       0.0265
     31 H13        -6.9434  -32.5444  -11.6710 H           1 MOL       0.0265
     32 H14        -6.7296  -33.2775  -14.6226 H           1 MOL       0.0260
     33 H15        -5.8746  -31.9846  -13.7711 H           1 MOL       0.0260
     34 H16        -7.9395  -30.7652  -13.3469 H           1 MOL       0.0227
     35 H17        -7.7595  -31.0838  -15.0527 H           1 MOL       0.0227
     36 H18       -10.4344  -30.6582  -13.1244 H           1 MOL       0.1993
     37 H19        -9.2254  -29.4446  -14.8185 H           1 MOL       0.0815
     38 H20       -10.3012  -30.1404  -16.0240 H           1 MOL       0.0815
     39 H21       -10.9759  -28.2817  -13.6695 H           1 MOL       0.0317
     40 H22       -10.9616  -27.8399  -15.3871 H           1 MOL       0.0317
     41 H23       -13.9608  -30.6185  -14.0563 H           1 MOL       0.0317
     42 H24       -12.8298  -29.9970  -12.8430 H           1 MOL       0.0317
     43 H25       -12.2043  -32.2538  -13.5552 H           1 MOL       0.0815
     44 H26       -12.1469  -31.7741  -15.2444 H           1 MOL       0.0815
@<TRIPOS>BOND
     1     1    17   1
     2     1    16   1
     3    16    15   1
     4    15    14   1
     5    14    18   1
     6    14     8   1
     7     8    13   1
     8     8     9   1
     9     8     2   1
    10     2     7  ar
    11     2     3  ar
    12     3     4  ar
    13     4     5  ar
    14     5     6  ar
    15     6     7  ar
    16     9    10   1
    17    10    11   1
    18    11    12   1
    19    12    13   1
    20    18    17   1
    21     1    19   1
    22     1    20   1
    23     3    21   1
    24     4    22   1
    25     5    23   1
    26     6    24   1
    27     7    25   1
    28     9    26   1
    29     9    27   1
    30    10    28   1
    31    10    29   1
    32    11    30   1
    33    11    31   1
    34    12    32   1
    35    12    33   1
    36    13    34   1
    37    13    35   1
    38    14    36   1
    39    15    37   1
    40    15    38   1
    41    16    39   1
    42    16    40   1
    43    17    41   1
    44    17    42   1
    45    18    43   1
    46    18    44   1
@<TRIPOS>SUBSTRUCTURE
     1  MOL      1

