@<TRIPOS>MOLECULE
2pcp_ligand_009
    44    46
SMALL
GAST_HUCK
****
This file was generated by PARSER (from files_GN.cpp)

@<TRIPOS>ATOM
      1 CP        -12.2171  -26.1910  -15.1866 C.3         1 MOL      -0.0434
      2 CA         -7.4353  -27.3123  -13.8286 C.ar        1 MOL      -0.0018
      3 CB         -7.2674  -27.0199  -12.4446 C.ar        1 MOL      -0.0343
      4 CC         -6.4190  -25.9919  -11.9873 C.ar        1 MOL      -0.0322
      5 CD         -5.7260  -25.1878  -12.9031 C.ar        1 MOL      -0.0340
      6 CE         -5.8853  -25.4153  -14.2764 C.ar        1 MOL      -0.0322
      7 CF         -6.7194  -26.4568  -14.7220 C.ar        1 MOL      -0.0343
      8 CG         -8.3692  -28.4271  -14.3416 C.3         1 MOL      -0.0135
      9 CH         -7.6769  -29.1824  -15.5549 C.3         1 MOL      -0.0293
     10 CI         -8.4141  -30.4322  -16.1085 C.3         1 MOL      -0.0551
     11 CJ         -8.6758  -31.4894  -15.0121 C.3         1 MOL      -0.0541
     12 CK         -9.3267  -30.8397  -13.7732 C.3         1 MOL      -0.0551
     13 CL         -8.5077  -29.6091  -13.2874 C.3         1 MOL      -0.0293
     14 NM         -9.7422  -27.8706  -14.7688 N.4         1 MOL       0.1961
     15 CN         -9.7257  -26.6026  -15.5920 C.3         1 MOL      -0.0361
     16 CO        -11.0913  -26.2644  -16.2449 C.3         1 MOL      -0.0123
     17 CQ        -12.2147  -27.4611  -14.3109 C.3         1 MOL      -0.0123
     18 CR        -10.8082  -27.7268  -13.7056 C.3         1 MOL      -0.0361
     19 H1        -12.0764  -25.3153  -14.5470 H           1 MOL       0.0269
     20 H2        -13.1907  -26.0939  -15.6750 H           1 MOL       0.0269
     21 H3         -7.7644  -27.5439  -11.7284 H           1 MOL       0.0852
     22 H4         -6.3209  -25.8208  -10.9843 H           1 MOL       0.0698
     23 H5         -5.1216  -24.4314  -12.5762 H           1 MOL       0.0856
     24 H6         -5.4026  -24.8150  -14.9495 H           1 MOL       0.0698
     25 H7         -6.8005  -26.5557  -15.7319 H           1 MOL       0.0852
     26 H8         -6.6701  -29.4985  -15.2624 H           1 MOL       0.0227
     27 H9         -7.5479  -28.5238  -16.4040 H           1 MOL       0.0227
     28 H10        -7.8028  -30.8900  -16.8909 H           1 MOL       0.0260
     29 H11        -9.3592  -30.1297  -16.5643 H           1 MOL       0.0260
     30 H12        -7.7339  -31.9634  -14.7212 H           1 MOL       0.0265
     31 H13        -9.3359  -32.2695  -15.4019 H           1 MOL       0.0265
     32 H14        -9.3949  -31.5811  -12.9716 H           1 MOL       0.0260
     33 H15       -10.3435  -30.5387  -14.0306 H           1 MOL       0.0260
     34 H16        -8.9669  -29.2692  -12.3690 H           1 MOL       0.0227
     35 H17        -7.5144  -29.9669  -12.9971 H           1 MOL       0.0227
     36 H18       -10.1217  -28.5805  -15.3951 H           1 MOL       0.1993
     37 H19        -9.4277  -25.7512  -14.9725 H           1 MOL       0.0815
     38 H20        -9.0108  -26.6786  -16.4064 H           1 MOL       0.0815
     39 H21       -11.0248  -25.3019  -16.7571 H           1 MOL       0.0317
     40 H22       -11.3378  -27.0254  -16.9898 H           1 MOL       0.0317
     41 H23       -12.5106  -28.3167  -14.9262 H           1 MOL       0.0317
     42 H24       -12.9543  -27.3483  -13.5122 H           1 MOL       0.0317
     43 H25       -10.5479  -26.9264  -13.0077 H           1 MOL       0.0815
     44 H26       -10.9305  -28.6361  -13.1229 H           1 MOL       0.0815
@<TRIPOS>BOND
     1     1    17   1
     2     1    16   1
     3    16    15   1
     4    15    14   1
     5    14    18   1
     6    14     8   1
     7     8    13   1
     8     8     9   1
     9     8     2   1
    10     2     7  ar
    11     2     3  ar
    12     3     4  ar
    13     4     5  ar
    14     5     6  ar
    15     6     7  ar
    16     9    10   1
    17    10    11   1
    18    11    12   1
    19    12    13   1
    20    18    17   1
    21     1    19   1
    22     1    20   1
    23     3    21   1
    24     4    22   1
    25     5    23   1
    26     6    24   1
    27     7    25   1
    28     9    26   1
    29     9    27   1
    30    10    28   1
    31    10    29   1
    32    11    30   1
    33    11    31   1
    34    12    32   1
    35    12    33   1
    36    13    34   1
    37    13    35   1
    38    14    36   1
    39    15    37   1
    40    15    38   1
    41    16    39   1
    42    16    40   1
    43    17    41   1
    44    17    42   1
    45    18    43   1
    46    18    44   1
@<TRIPOS>SUBSTRUCTURE
     1  MOL      1

