@<TRIPOS>MOLECULE
2pcp_ligand_056
    44    46
SMALL
GAST_HUCK
****
This file was generated by PARSER (from files_GN.cpp)

@<TRIPOS>ATOM
      1 CP         -8.2663  -33.6037  -11.6124 C.3         1 MOL      -0.0434
      2 CA         -7.4117  -32.8067  -16.4167 C.ar        1 MOL      -0.0018
      3 CB         -6.3284  -33.3184  -17.1855 C.ar        1 MOL      -0.0343
      4 CC         -6.4618  -34.4517  -18.0114 C.ar        1 MOL      -0.0322
      5 CD         -7.6913  -35.1178  -18.1029 C.ar        1 MOL      -0.0340
      6 CE         -8.7792  -34.6602  -17.3465 C.ar        1 MOL      -0.0322
      7 CF         -8.6290  -33.5416  -16.5062 C.ar        1 MOL      -0.0343
      8 CG         -7.2642  -31.5959  -15.4816 C.3         1 MOL      -0.0135
      9 CH         -5.8531  -30.8682  -15.6305 C.3         1 MOL      -0.0293
     10 CI         -5.6820  -29.5597  -14.8050 C.3         1 MOL      -0.0551
     11 CJ         -6.7989  -28.5229  -15.0810 C.3         1 MOL      -0.0541
     12 CK         -8.2012  -29.1627  -15.0348 C.3         1 MOL      -0.0551
     13 CL         -8.2619  -30.4412  -15.9174 C.3         1 MOL      -0.0293
     14 NM         -7.4783  -32.0311  -14.0258 N.4         1 MOL       0.1961
     15 CN         -8.9027  -32.0711  -13.5222 C.3         1 MOL      -0.0361
     16 CO         -8.9614  -32.2759  -11.9916 C.3         1 MOL      -0.0123
     17 CQ         -6.8115  -33.5959  -12.1298 C.3         1 MOL      -0.0123
     18 CR         -6.7774  -33.3138  -13.6472 C.3         1 MOL      -0.0361
     19 H1         -8.2709  -33.7494  -10.5329 H           1 MOL       0.0269
     20 H2         -8.8182  -34.4373  -12.0470 H           1 MOL       0.0269
     21 H3         -5.4104  -32.8818  -17.1617 H           1 MOL       0.0852
     22 H4         -5.6720  -34.7748  -18.5714 H           1 MOL       0.0698
     23 H5         -7.7929  -35.9330  -18.7136 H           1 MOL       0.0856
     24 H6         -9.6817  -35.1377  -17.4125 H           1 MOL       0.0698
     25 H7         -9.4427  -33.2796  -15.9560 H           1 MOL       0.0852
     26 H8         -5.6832  -30.6278  -16.6847 H           1 MOL       0.0227
     27 H9         -5.0212  -31.5089  -15.3419 H           1 MOL       0.0227
     28 H10        -4.7173  -29.1062  -15.0511 H           1 MOL       0.0260
     29 H11        -5.6676  -29.8018  -13.7408 H           1 MOL       0.0260
     30 H12        -6.6454  -28.0758  -16.0650 H           1 MOL       0.0265
     31 H13        -6.7431  -27.7225  -14.3387 H           1 MOL       0.0265
     32 H14        -8.9336  -28.4388  -15.4045 H           1 MOL       0.0260
     33 H15        -8.4616  -29.4003  -14.0010 H           1 MOL       0.0260
     34 H16        -9.2988  -30.7683  -15.9184 H           1 MOL       0.0227
     35 H17        -8.0451  -30.1416  -16.9480 H           1 MOL       0.0227
     36 H18        -7.0197  -31.3159  -13.4526 H           1 MOL       0.1993
     37 H19        -9.4295  -31.1368  -13.7145 H           1 MOL       0.0815
     38 H20        -9.4684  -32.8768  -13.9982 H           1 MOL       0.0815
     39 H21        -8.4523  -31.4332  -11.5139 H           1 MOL       0.0317
     40 H22       -10.0009  -32.2911  -11.6560 H           1 MOL       0.0317
     41 H23        -6.3424  -34.5580  -11.9145 H           1 MOL       0.0317
     42 H24        -6.2385  -32.8209  -11.6179 H           1 MOL       0.0317
     43 H25        -5.7293  -33.2944  -13.9198 H           1 MOL       0.0815
     44 H26        -7.2321  -34.1553  -14.1655 H           1 MOL       0.0815
@<TRIPOS>BOND
     1     1    17   1
     2     1    16   1
     3    16    15   1
     4    15    14   1
     5    14    18   1
     6    14     8   1
     7     8    13   1
     8     8     9   1
     9     8     2   1
    10     2     7  ar
    11     2     3  ar
    12     3     4  ar
    13     4     5  ar
    14     5     6  ar
    15     6     7  ar
    16     9    10   1
    17    10    11   1
    18    11    12   1
    19    12    13   1
    20    18    17   1
    21     1    19   1
    22     1    20   1
    23     3    21   1
    24     4    22   1
    25     5    23   1
    26     6    24   1
    27     7    25   1
    28     9    26   1
    29     9    27   1
    30    10    28   1
    31    10    29   1
    32    11    30   1
    33    11    31   1
    34    12    32   1
    35    12    33   1
    36    13    34   1
    37    13    35   1
    38    14    36   1
    39    15    37   1
    40    15    38   1
    41    16    39   1
    42    16    40   1
    43    17    41   1
    44    17    42   1
    45    18    43   1
    46    18    44   1
@<TRIPOS>SUBSTRUCTURE
     1  MOL      1

