@<TRIPOS>MOLECULE
2pcp_ligand_054
    44    46
SMALL
GAST_HUCK
****
This file was generated by PARSER (from files_GN.cpp)

@<TRIPOS>ATOM
      1 CP        -10.6136  -34.3753  -10.9112 C.3         1 MOL      -0.0434
      2 CA         -9.5973  -33.6008  -15.8082 C.ar        1 MOL      -0.0018
      3 CB         -8.7736  -34.3178  -16.7345 C.ar        1 MOL      -0.0343
      4 CC         -9.2933  -35.2772  -17.6171 C.ar        1 MOL      -0.0322
      5 CD        -10.6687  -35.5574  -17.6233 C.ar        1 MOL      -0.0340
      6 CE        -11.5148  -34.8584  -16.7496 C.ar        1 MOL      -0.0322
      7 CF        -10.9902  -33.8923  -15.8737 C.ar        1 MOL      -0.0343
      8 CG         -9.0506  -32.6106  -14.7696 C.3         1 MOL      -0.0135
      9 CH         -7.4667  -32.4643  -14.8675 C.3         1 MOL      -0.0293
     10 CI         -6.8320  -31.3869  -13.9503 C.3         1 MOL      -0.0551
     11 CJ         -7.4156  -29.9926  -14.2688 C.3         1 MOL      -0.0541
     12 CK         -8.9639  -30.0133  -14.2405 C.3         1 MOL      -0.0551
     13 CL         -9.5489  -31.1501  -15.1367 C.3         1 MOL      -0.0293
     14 NM         -9.4229  -33.0444  -13.3358 N.4         1 MOL       0.1961
     15 CN         -9.2030  -34.5106  -13.0531 C.3         1 MOL      -0.0361
     16 CO         -9.3034  -34.8950  -11.5577 C.3         1 MOL      -0.0123
     17 CQ        -10.8112  -32.8761  -11.2231 C.3         1 MOL      -0.0123
     18 CR        -10.7647  -32.6418  -12.7562 C.3         1 MOL      -0.0361
     19 H1        -11.4621  -34.9451  -11.3054 H           1 MOL       0.0269
     20 H2        -10.5778  -34.5272   -9.8276 H           1 MOL       0.0269
     21 H3         -7.7693  -34.1550  -16.7961 H           1 MOL       0.0852
     22 H4         -8.6655  -35.7693  -18.2640 H           1 MOL       0.0698
     23 H5        -11.0471  -36.2490  -18.2706 H           1 MOL       0.0856
     24 H6        -12.5204  -35.0383  -16.7724 H           1 MOL       0.0698
     25 H7        -11.6563  -33.3741  -15.3123 H           1 MOL       0.0852
     26 H8         -7.1921  -32.1885  -15.8921 H           1 MOL       0.0227
     27 H9         -6.9548  -33.4017  -14.6562 H           1 MOL       0.0227
     28 H10        -5.7474  -31.3661  -14.1063 H           1 MOL       0.0260
     29 H11        -7.0119  -31.6393  -12.9044 H           1 MOL       0.0260
     30 H12        -7.0768  -29.6797  -15.2608 H           1 MOL       0.0265
     31 H13        -7.0431  -29.2643  -13.5397 H           1 MOL       0.0265
     32 H14        -9.3364  -29.0493  -14.6013 H           1 MOL       0.0260
     33 H15        -9.2947  -30.1326  -13.2072 H           1 MOL       0.0260
     34 H16       -10.6365  -31.0837  -15.1004 H           1 MOL       0.0227
     35 H17        -9.2745  -30.9180  -16.1704 H           1 MOL       0.0227
     36 H18        -8.7539  -32.5602  -12.7371 H           1 MOL       0.1993
     37 H19        -9.9239  -35.1185  -13.6086 H           1 MOL       0.0815
     38 H20        -8.2036  -34.7977  -13.3669 H           1 MOL       0.0815
     39 H21        -9.2609  -35.9826  -11.4520 H           1 MOL       0.0317
     40 H22        -8.4424  -34.4655  -11.0405 H           1 MOL       0.0317
     41 H23       -10.0323  -32.2850  -10.7298 H           1 MOL       0.0317
     42 H24       -11.7829  -32.5531  -10.8341 H           1 MOL       0.0317
     43 H25       -11.5798  -33.2132  -13.1951 H           1 MOL       0.0815
     44 H26       -10.9751  -31.5852  -12.9089 H           1 MOL       0.0815
@<TRIPOS>BOND
     1     1    17   1
     2     1    16   1
     3    16    15   1
     4    15    14   1
     5    14    18   1
     6    14     8   1
     7     8    13   1
     8     8     9   1
     9     8     2   1
    10     2     7  ar
    11     2     3  ar
    12     3     4  ar
    13     4     5  ar
    14     5     6  ar
    15     6     7  ar
    16     9    10   1
    17    10    11   1
    18    11    12   1
    19    12    13   1
    20    18    17   1
    21     1    19   1
    22     1    20   1
    23     3    21   1
    24     4    22   1
    25     5    23   1
    26     6    24   1
    27     7    25   1
    28     9    26   1
    29     9    27   1
    30    10    28   1
    31    10    29   1
    32    11    30   1
    33    11    31   1
    34    12    32   1
    35    12    33   1
    36    13    34   1
    37    13    35   1
    38    14    36   1
    39    15    37   1
    40    15    38   1
    41    16    39   1
    42    16    40   1
    43    17    41   1
    44    17    42   1
    45    18    43   1
    46    18    44   1
@<TRIPOS>SUBSTRUCTURE
     1  MOL      1

