@<TRIPOS>MOLECULE
2pcp_ligand_053
    44    46
SMALL
GAST_HUCK
****
This file was generated by PARSER (from files_GN.cpp)

@<TRIPOS>ATOM
      1 CP         -8.0466  -24.1563  -11.1156 C.3         1 MOL      -0.0434
      2 CA        -10.4282  -27.3242  -14.5718 C.ar        1 MOL      -0.0018
      3 CB        -11.1417  -26.3444  -15.3190 C.ar        1 MOL      -0.0343
      4 CC        -12.5063  -26.4960  -15.6426 C.ar        1 MOL      -0.0322
      5 CD        -13.2086  -27.6204  -15.1821 C.ar        1 MOL      -0.0340
      6 CE        -12.5656  -28.5579  -14.3672 C.ar        1 MOL      -0.0322
      7 CF        -11.2031  -28.4056  -14.0620 C.ar        1 MOL      -0.0343
      8 CG         -8.9197  -27.1622  -14.3487 C.3         1 MOL      -0.0135
      9 CH         -8.2575  -28.5120  -13.8378 C.3         1 MOL      -0.0293
     10 CI         -6.7111  -28.5482  -13.8242 C.3         1 MOL      -0.0551
     11 CJ         -6.1630  -28.3365  -15.2501 C.3         1 MOL      -0.0541
     12 CK         -6.7142  -27.0407  -15.8882 C.3         1 MOL      -0.0551
     13 CL         -8.2649  -26.9260  -15.7796 C.3         1 MOL      -0.0293
     14 NM         -8.8034  -25.9713  -13.3791 N.4         1 MOL       0.1961
     15 CN         -9.1020  -26.3095  -11.9491 C.3         1 MOL      -0.0361
     16 CO         -9.2972  -25.0559  -11.0667 C.3         1 MOL      -0.0123
     17 CQ         -7.6539  -23.8137  -12.5683 C.3         1 MOL      -0.0123
     18 CR         -7.6114  -25.0632  -13.4796 C.3         1 MOL      -0.0361
     19 H1         -8.2466  -23.2346  -10.5560 H           1 MOL       0.0269
     20 H2         -7.2164  -24.6707  -10.6316 H           1 MOL       0.0269
     21 H3        -10.6682  -25.5091  -15.6677 H           1 MOL       0.0852
     22 H4        -12.9764  -25.7958  -16.2175 H           1 MOL       0.0698
     23 H5        -14.1894  -27.7500  -15.4399 H           1 MOL       0.0856
     24 H6        -13.0860  -29.3600  -14.0009 H           1 MOL       0.0698
     25 H7        -10.7906  -29.1172  -13.4627 H           1 MOL       0.0852
     26 H8         -8.5705  -29.3327  -14.4960 H           1 MOL       0.0227
     27 H9         -8.6030  -28.7821  -12.8388 H           1 MOL       0.0227
     28 H10        -6.3716  -29.5218  -13.4697 H           1 MOL       0.0260
     29 H11        -6.3179  -27.7966  -13.1418 H           1 MOL       0.0260
     30 H12        -6.4348  -29.1913  -15.8752 H           1 MOL       0.0265
     31 H13        -5.0724  -28.2939  -15.1993 H           1 MOL       0.0265
     32 H14        -6.4351  -27.0156  -16.9407 H           1 MOL       0.0260
     33 H15        -6.2065  -26.1894  -15.4426 H           1 MOL       0.0260
     34 H16        -8.5433  -25.9485  -16.1785 H           1 MOL       0.0227
     35 H17        -8.6827  -27.6651  -16.4703 H           1 MOL       0.0227
     36 H18        -9.5666  -25.3460  -13.6277 H           1 MOL       0.1993
     37 H19       -10.0294  -26.8784  -11.9012 H           1 MOL       0.0815
     38 H20        -8.3002  -26.9123  -11.5107 H           1 MOL       0.0815
     39 H21       -10.1723  -24.5106  -11.4230 H           1 MOL       0.0317
     40 H22        -9.4786  -25.3457  -10.0305 H           1 MOL       0.0317
     41 H23        -6.6634  -23.3577  -12.5801 H           1 MOL       0.0317
     42 H24        -8.3475  -23.0767  -12.9746 H           1 MOL       0.0317
     43 H25        -7.5430  -24.6667  -14.4920 H           1 MOL       0.0815
     44 H26        -6.6975  -25.6071  -13.2459 H           1 MOL       0.0815
@<TRIPOS>BOND
     1     1    17   1
     2     1    16   1
     3    16    15   1
     4    15    14   1
     5    14    18   1
     6    14     8   1
     7     8    13   1
     8     8     9   1
     9     8     2   1
    10     2     7  ar
    11     2     3  ar
    12     3     4  ar
    13     4     5  ar
    14     5     6  ar
    15     6     7  ar
    16     9    10   1
    17    10    11   1
    18    11    12   1
    19    12    13   1
    20    18    17   1
    21     1    19   1
    22     1    20   1
    23     3    21   1
    24     4    22   1
    25     5    23   1
    26     6    24   1
    27     7    25   1
    28     9    26   1
    29     9    27   1
    30    10    28   1
    31    10    29   1
    32    11    30   1
    33    11    31   1
    34    12    32   1
    35    12    33   1
    36    13    34   1
    37    13    35   1
    38    14    36   1
    39    15    37   1
    40    15    38   1
    41    16    39   1
    42    16    40   1
    43    17    41   1
    44    17    42   1
    45    18    43   1
    46    18    44   1
@<TRIPOS>SUBSTRUCTURE
     1  MOL      1

