@<TRIPOS>MOLECULE
2pcp_ligand_026
    44    46
SMALL
GAST_HUCK
****
This file was generated by PARSER (from files_GN.cpp)

@<TRIPOS>ATOM
      1 CP         -2.2138  -27.1153  -12.4980 C.3         1 MOL      -0.0434
      2 CA         -7.2986  -25.7553  -12.8848 C.ar        1 MOL      -0.0018
      3 CB         -7.6793  -25.8435  -11.5130 C.ar        1 MOL      -0.0343
      4 CC         -8.1861  -24.7431  -10.8028 C.ar        1 MOL      -0.0322
      5 CD         -8.3126  -23.5025  -11.4408 C.ar        1 MOL      -0.0340
      6 CE         -7.9383  -23.3668  -12.7850 C.ar        1 MOL      -0.0322
      7 CF         -7.4157  -24.4653  -13.4826 C.ar        1 MOL      -0.0343
      8 CG         -6.5987  -26.9151  -13.6020 C.3         1 MOL      -0.0135
      9 CH         -7.2208  -28.3161  -13.1777 C.3         1 MOL      -0.0293
     10 CI         -8.7416  -28.4566  -13.4981 C.3         1 MOL      -0.0551
     11 CJ         -9.0278  -28.2245  -15.0051 C.3         1 MOL      -0.0541
     12 CK         -8.3744  -26.9263  -15.5356 C.3         1 MOL      -0.0551
     13 CL         -6.8657  -26.8753  -15.1609 C.3         1 MOL      -0.0293
     14 NM         -5.0733  -26.7927  -13.3977 N.4         1 MOL       0.1961
     15 CN         -4.2744  -28.0501  -13.6393 C.3         1 MOL      -0.0361
     16 CO         -2.7618  -27.7501  -13.7917 C.3         1 MOL      -0.0123
     17 CQ         -3.0314  -25.8459  -12.1671 C.3         1 MOL      -0.0123
     18 CR         -4.5552  -26.1295  -12.1390 C.3         1 MOL      -0.0361
     19 H1         -2.2831  -27.8297  -11.6707 H           1 MOL       0.0269
     20 H2         -1.1605  -26.8581  -12.6360 H           1 MOL       0.0269
     21 H3         -7.5428  -26.7021  -10.9833 H           1 MOL       0.0852
     22 H4         -8.4261  -24.8273   -9.8133 H           1 MOL       0.0698
     23 H5         -8.6414  -22.6923  -10.9174 H           1 MOL       0.0856
     24 H6         -8.0209  -22.4605  -13.2529 H           1 MOL       0.0698
     25 H7         -7.1017  -24.2882  -14.4364 H           1 MOL       0.0852
     26 H8         -7.0530  -28.5210  -12.1242 H           1 MOL       0.0227
     27 H9         -6.7293  -29.1306  -13.7115 H           1 MOL       0.0227
     28 H10        -9.3136  -27.7462  -12.9006 H           1 MOL       0.0260
     29 H11        -9.0758  -29.4583  -13.2172 H           1 MOL       0.0260
     30 H12       -10.1072  -28.1828  -15.1674 H           1 MOL       0.0265
     31 H13        -8.6416  -29.0742  -15.5728 H           1 MOL       0.0265
     32 H14        -8.9093  -26.0688  -15.1257 H           1 MOL       0.0260
     33 H15        -8.4833  -26.8792  -16.6185 H           1 MOL       0.0260
     34 H16        -6.3903  -27.7293  -15.6466 H           1 MOL       0.0227
     35 H17        -6.4047  -26.0052  -15.6265 H           1 MOL       0.0227
     36 H18        -4.7750  -26.1515  -14.1389 H           1 MOL       0.1993
     37 H19        -4.4130  -28.7483  -12.8096 H           1 MOL       0.0815
     38 H20        -4.5888  -28.5564  -14.5503 H           1 MOL       0.0815
     39 H21        -2.2120  -28.6684  -14.0039 H           1 MOL       0.0317
     40 H22        -2.6074  -27.0655  -14.6323 H           1 MOL       0.0317
     41 H23        -2.8421  -25.0916  -12.9304 H           1 MOL       0.0317
     42 H24        -2.7036  -25.4485  -11.2044 H           1 MOL       0.0317
     43 H25        -4.7955  -26.7332  -11.2594 H           1 MOL       0.0815
     44 H26        -5.0109  -25.1479  -12.0077 H           1 MOL       0.0815
@<TRIPOS>BOND
     1     1    17   1
     2     1    16   1
     3    16    15   1
     4    15    14   1
     5    14    18   1
     6    14     8   1
     7     8    13   1
     8     8     9   1
     9     8     2   1
    10     2     7  ar
    11     2     3  ar
    12     3     4  ar
    13     4     5  ar
    14     5     6  ar
    15     6     7  ar
    16     9    10   1
    17    10    11   1
    18    11    12   1
    19    12    13   1
    20    18    17   1
    21     1    19   1
    22     1    20   1
    23     3    21   1
    24     4    22   1
    25     5    23   1
    26     6    24   1
    27     7    25   1
    28     9    26   1
    29     9    27   1
    30    10    28   1
    31    10    29   1
    32    11    30   1
    33    11    31   1
    34    12    32   1
    35    12    33   1
    36    13    34   1
    37    13    35   1
    38    14    36   1
    39    15    37   1
    40    15    38   1
    41    16    39   1
    42    16    40   1
    43    17    41   1
    44    17    42   1
    45    18    43   1
    46    18    44   1
@<TRIPOS>SUBSTRUCTURE
     1  MOL      1

