@<TRIPOS>MOLECULE
2pcp_ligand_011
    44    46
SMALL
GAST_HUCK
****
This file was generated by PARSER (from files_GN.cpp)

@<TRIPOS>ATOM
      1 CP        -11.9894  -33.6416  -12.5982 C.3         1 MOL      -0.0434
      2 CA        -13.2903  -29.7206  -15.7069 C.ar        1 MOL      -0.0018
      3 CB        -13.6902  -30.9726  -16.2613 C.ar        1 MOL      -0.0343
      4 CC        -14.6736  -31.0822  -17.2685 C.ar        1 MOL      -0.0322
      5 CD        -15.2884  -29.9327  -17.7819 C.ar        1 MOL      -0.0340
      6 CE        -14.8967  -28.6758  -17.2998 C.ar        1 MOL      -0.0322
      7 CF        -13.9138  -28.5827  -16.2958 C.ar        1 MOL      -0.0343
      8 CG        -12.2321  -29.5858  -14.5946 C.3         1 MOL      -0.0135
      9 CH        -10.8677  -29.1223  -15.2457 C.3         1 MOL      -0.0293
     10 CI        -10.7473  -27.6488  -15.7102 C.3         1 MOL      -0.0551
     11 CJ        -11.0350  -26.6628  -14.5514 C.3         1 MOL      -0.0541
     12 CK        -12.3641  -26.9534  -13.8117 C.3         1 MOL      -0.0551
     13 CL        -12.6075  -28.4666  -13.5192 C.3         1 MOL      -0.0293
     14 NM        -11.9896  -30.8721  -13.7559 N.4         1 MOL       0.1961
     15 CN        -11.0822  -31.9580  -14.2969 C.3         1 MOL      -0.0361
     16 CO        -10.7211  -33.0289  -13.2327 C.3         1 MOL      -0.0123
     17 CQ        -12.8846  -32.5284  -12.0123 C.3         1 MOL      -0.0123
     18 CR        -13.2178  -31.4652  -13.0903 C.3         1 MOL      -0.0361
     19 H1        -12.5430  -34.2058  -13.3542 H           1 MOL       0.0269
     20 H2        -11.7000  -34.3321  -11.8027 H           1 MOL       0.0269
     21 H3        -13.2687  -31.8466  -15.9592 H           1 MOL       0.0852
     22 H4        -14.9391  -32.0002  -17.6320 H           1 MOL       0.0698
     23 H5        -15.9988  -30.0047  -18.5158 H           1 MOL       0.0856
     24 H6        -15.3219  -27.8279  -17.6866 H           1 MOL       0.0698
     25 H7        -13.6563  -27.6422  -16.0144 H           1 MOL       0.0852
     26 H8        -10.6387  -29.7541  -16.1083 H           1 MOL       0.0227
     27 H9        -10.0600  -29.2654  -14.5195 H           1 MOL       0.0227
     28 H10       -11.4103  -27.4570  -16.5517 H           1 MOL       0.0260
     29 H11        -9.7295  -27.4719  -16.0683 H           1 MOL       0.0260
     30 H12       -11.0652  -25.6448  -14.9505 H           1 MOL       0.0265
     31 H13       -10.2133  -26.7103  -13.8311 H           1 MOL       0.0265
     32 H14       -13.1979  -26.5394  -14.3807 H           1 MOL       0.0260
     33 H15       -12.3563  -26.4072  -12.8620 H           1 MOL       0.0260
     34 H16       -12.0441  -28.6624  -12.6008 H           1 MOL       0.0227
     35 H17       -13.6657  -28.5610  -13.2587 H           1 MOL       0.0227
     36 H18       -11.4405  -30.5368  -12.9580 H           1 MOL       0.1993
     37 H19       -11.5172  -32.4485  -15.1646 H           1 MOL       0.0815
     38 H20       -10.1235  -31.5465  -14.6126 H           1 MOL       0.0815
     39 H21       -10.1254  -33.8180  -13.6996 H           1 MOL       0.0317
     40 H22       -10.1136  -32.5673  -12.4471 H           1 MOL       0.0317
     41 H23       -12.3685  -32.0523  -11.1758 H           1 MOL       0.0317
     42 H24       -13.8097  -32.9694  -11.6300 H           1 MOL       0.0317
     43 H25       -13.8882  -31.9307  -13.8106 H           1 MOL       0.0815
     44 H26       -13.7983  -30.6999  -12.5760 H           1 MOL       0.0815
@<TRIPOS>BOND
     1     1    17   1
     2     1    16   1
     3    16    15   1
     4    15    14   1
     5    14    18   1
     6    14     8   1
     7     8    13   1
     8     8     9   1
     9     8     2   1
    10     2     7  ar
    11     2     3  ar
    12     3     4  ar
    13     4     5  ar
    14     5     6  ar
    15     6     7  ar
    16     9    10   1
    17    10    11   1
    18    11    12   1
    19    12    13   1
    20    18    17   1
    21     1    19   1
    22     1    20   1
    23     3    21   1
    24     4    22   1
    25     5    23   1
    26     6    24   1
    27     7    25   1
    28     9    26   1
    29     9    27   1
    30    10    28   1
    31    10    29   1
    32    11    30   1
    33    11    31   1
    34    12    32   1
    35    12    33   1
    36    13    34   1
    37    13    35   1
    38    14    36   1
    39    15    37   1
    40    15    38   1
    41    16    39   1
    42    16    40   1
    43    17    41   1
    44    17    42   1
    45    18    43   1
    46    18    44   1
@<TRIPOS>SUBSTRUCTURE
     1  MOL      1

