@<TRIPOS>MOLECULE
2pcp_ligand_049
    44    46
SMALL
GAST_HUCK
****
This file was generated by PARSER (from files_GN.cpp)

@<TRIPOS>ATOM
      1 CP         -8.4576  -24.9042  -10.5167 C.3         1 MOL      -0.0434
      2 CA         -7.8222  -27.0636  -15.1839 C.ar        1 MOL      -0.0018
      3 CB         -8.6771  -28.1974  -15.0497 C.ar        1 MOL      -0.0343
      4 CC         -9.7652  -28.4273  -15.9140 C.ar        1 MOL      -0.0322
      5 CD        -10.0774  -27.4898  -16.9087 C.ar        1 MOL      -0.0340
      6 CE         -9.2992  -26.3297  -17.0349 C.ar        1 MOL      -0.0322
      7 CF         -8.1866  -26.1276  -16.1929 C.ar        1 MOL      -0.0343
      8 CG         -6.6795  -26.8308  -14.1824 C.3         1 MOL      -0.0135
      9 CH         -5.9369  -28.2328  -14.0497 C.3         1 MOL      -0.0293
     10 CI         -4.4972  -28.3334  -13.4666 C.3         1 MOL      -0.0551
     11 CJ         -3.5286  -27.2562  -13.9956 C.3         1 MOL      -0.0541
     12 CK         -4.1632  -25.8503  -14.0396 C.3         1 MOL      -0.0551
     13 CL         -5.5771  -25.8191  -14.6946 C.3         1 MOL      -0.0293
     14 NM         -7.3712  -26.3352  -12.9052 N.4         1 MOL       0.1961
     15 CN         -6.4916  -25.9086  -11.7637 C.3         1 MOL      -0.0361
     16 CO         -7.2786  -25.9034  -10.4376 C.3         1 MOL      -0.0123
     17 CQ         -9.3268  -25.2149  -11.7566 C.3         1 MOL      -0.0123
     18 CR         -8.4599  -25.2835  -13.0424 C.3         1 MOL      -0.0361
     19 H1         -9.0672  -24.9688   -9.6143 H           1 MOL       0.0269
     20 H2         -8.0756  -23.8808  -10.5906 H           1 MOL       0.0269
     21 H3         -8.5220  -28.8788  -14.3036 H           1 MOL       0.0852
     22 H4        -10.3382  -29.2662  -15.8066 H           1 MOL       0.0698
     23 H5        -10.8799  -27.6423  -17.5259 H           1 MOL       0.0856
     24 H6         -9.5533  -25.6250  -17.7321 H           1 MOL       0.0698
     25 H7         -7.6685  -25.2551  -16.3024 H           1 MOL       0.0852
     26 H8         -5.8525  -28.6677  -15.0547 H           1 MOL       0.0227
     27 H9         -6.5513  -28.9162  -13.4610 H           1 MOL       0.0227
     28 H10        -4.1001  -29.3136  -13.7305 H           1 MOL       0.0260
     29 H11        -4.5045  -28.3183  -12.3792 H           1 MOL       0.0260
     30 H12        -3.1992  -27.5328  -14.9966 H           1 MOL       0.0265
     31 H13        -2.6381  -27.2288  -13.3599 H           1 MOL       0.0265
     32 H14        -3.5011  -25.2072  -14.6192 H           1 MOL       0.0260
     33 H15        -4.1755  -25.4356  -13.0360 H           1 MOL       0.0260
     34 H16        -5.9551  -24.7961  -14.6223 H           1 MOL       0.0227
     35 H17        -5.4082  -26.0203  -15.7517 H           1 MOL       0.0227
     36 H18        -7.8637  -27.1609  -12.5535 H           1 MOL       0.1993
     37 H19        -5.6666  -26.5786  -11.6121 H           1 MOL       0.0815
     38 H20        -6.0889  -24.9072  -11.9295 H           1 MOL       0.0815
     39 H21        -7.6492  -26.9133  -10.2611 H           1 MOL       0.0317
     40 H22        -6.6120  -25.6438   -9.6153 H           1 MOL       0.0317
     41 H23       -10.0956  -24.4492  -11.8497 H           1 MOL       0.0317
     42 H24        -9.8303  -26.1751  -11.6256 H           1 MOL       0.0317
     43 H25        -9.1565  -25.5075  -13.8481 H           1 MOL       0.0815
     44 H26        -8.0335  -24.2940  -13.2470 H           1 MOL       0.0815
@<TRIPOS>BOND
     1     1    17   1
     2     1    16   1
     3    16    15   1
     4    15    14   1
     5    14    18   1
     6    14     8   1
     7     8    13   1
     8     8     9   1
     9     8     2   1
    10     2     7  ar
    11     2     3  ar
    12     3     4  ar
    13     4     5  ar
    14     5     6  ar
    15     6     7  ar
    16     9    10   1
    17    10    11   1
    18    11    12   1
    19    12    13   1
    20    18    17   1
    21     1    19   1
    22     1    20   1
    23     3    21   1
    24     4    22   1
    25     5    23   1
    26     6    24   1
    27     7    25   1
    28     9    26   1
    29     9    27   1
    30    10    28   1
    31    10    29   1
    32    11    30   1
    33    11    31   1
    34    12    32   1
    35    12    33   1
    36    13    34   1
    37    13    35   1
    38    14    36   1
    39    15    37   1
    40    15    38   1
    41    16    39   1
    42    16    40   1
    43    17    41   1
    44    17    42   1
    45    18    43   1
    46    18    44   1
@<TRIPOS>SUBSTRUCTURE
     1  MOL      1

