@<TRIPOS>MOLECULE
2pcp_ligand_030
    44    46
SMALL
GAST_HUCK
****
This file was generated by PARSER (from files_GN.cpp)

@<TRIPOS>ATOM
      1 CP        -10.8668  -26.9760  -15.3740 C.3         1 MOL      -0.0434
      2 CA         -9.4594  -31.4541  -13.4339 C.ar        1 MOL      -0.0018
      3 CB        -10.7729  -31.7808  -13.8819 C.ar        1 MOL      -0.0343
      4 CC        -11.6902  -32.4701  -13.0692 C.ar        1 MOL      -0.0322
      5 CD        -11.3296  -32.8561  -11.7712 C.ar        1 MOL      -0.0340
      6 CE        -10.0488  -32.5469  -11.2900 C.ar        1 MOL      -0.0322
      7 CF         -9.1281  -31.8627  -12.1089 C.ar        1 MOL      -0.0343
      8 CG         -8.4959  -30.6783  -14.3402 C.3         1 MOL      -0.0135
      9 CH         -7.1039  -30.3733  -13.6378 C.3         1 MOL      -0.0293
     10 CI         -6.0214  -29.7308  -14.5509 C.3         1 MOL      -0.0551
     11 CJ         -5.6966  -30.6500  -15.7481 C.3         1 MOL      -0.0541
     12 CK         -6.9837  -31.0679  -16.4979 C.3         1 MOL      -0.0551
     13 CL         -8.0622  -31.6372  -15.5290 C.3         1 MOL      -0.0293
     14 NM         -9.1136  -29.3336  -14.7690 N.4         1 MOL       0.1961
     15 CN         -9.9778  -29.2971  -16.0024 C.3         1 MOL      -0.0361
     16 CO        -10.2357  -27.8446  -16.4875 C.3         1 MOL      -0.0123
     17 CQ        -10.0414  -27.0732  -14.0679 C.3         1 MOL      -0.0123
     18 CR         -9.8085  -28.5546  -13.6754 C.3         1 MOL      -0.0361
     19 H1        -10.9060  -25.9326  -15.7005 H           1 MOL       0.0269
     20 H2        -11.8876  -27.3115  -15.1785 H           1 MOL       0.0269
     21 H3        -11.0944  -31.5327  -14.8182 H           1 MOL       0.0852
     22 H4        -12.6220  -32.6897  -13.4262 H           1 MOL       0.0698
     23 H5        -11.9978  -33.3552  -11.1781 H           1 MOL       0.0856
     24 H6         -9.7803  -32.8158  -10.3411 H           1 MOL       0.0698
     25 H7         -8.2169  -31.6481  -11.6998 H           1 MOL       0.0852
     26 H8         -6.6834  -31.3059  -13.2425 H           1 MOL       0.0227
     27 H9         -7.2262  -29.7084  -12.7897 H           1 MOL       0.0227
     28 H10        -5.1023  -29.5740  -13.9727 H           1 MOL       0.0260
     29 H11        -6.3474  -28.7483  -14.9102 H           1 MOL       0.0260
     30 H12        -5.2001  -31.5515  -15.3770 H           1 MOL       0.0265
     31 H13        -5.0112  -30.1392  -16.4312 H           1 MOL       0.0265
     32 H14        -6.7210  -31.8333  -17.2333 H           1 MOL       0.0260
     33 H15        -7.3743  -30.2061  -17.0424 H           1 MOL       0.0260
     34 H16        -8.9147  -31.9239  -16.1351 H           1 MOL       0.0227
     35 H17        -7.6718  -32.5707  -15.1149 H           1 MOL       0.0227
     36 H18        -8.3135  -28.7587  -15.0356 H           1 MOL       0.1993
     37 H19        -9.4922  -29.7995  -16.8311 H           1 MOL       0.0815
     38 H20       -10.9414  -29.7805  -15.8226 H           1 MOL       0.0815
     39 H21        -9.2902  -27.3920  -16.8009 H           1 MOL       0.0317
     40 H22       -10.9031  -27.8605  -17.3522 H           1 MOL       0.0317
     41 H23       -10.5685  -26.5565  -13.2620 H           1 MOL       0.0317
     42 H24        -9.0739  -26.5787  -14.2099 H           1 MOL       0.0317
     43 H25        -9.2322  -28.5323  -12.7508 H           1 MOL       0.0815
     44 H26       -10.7726  -29.0173  -13.4396 H           1 MOL       0.0815
@<TRIPOS>BOND
     1     1    17   1
     2     1    16   1
     3    16    15   1
     4    15    14   1
     5    14    18   1
     6    14     8   1
     7     8    13   1
     8     8     9   1
     9     8     2   1
    10     2     7  ar
    11     2     3  ar
    12     3     4  ar
    13     4     5  ar
    14     5     6  ar
    15     6     7  ar
    16     9    10   1
    17    10    11   1
    18    11    12   1
    19    12    13   1
    20    18    17   1
    21     1    19   1
    22     1    20   1
    23     3    21   1
    24     4    22   1
    25     5    23   1
    26     6    24   1
    27     7    25   1
    28     9    26   1
    29     9    27   1
    30    10    28   1
    31    10    29   1
    32    11    30   1
    33    11    31   1
    34    12    32   1
    35    12    33   1
    36    13    34   1
    37    13    35   1
    38    14    36   1
    39    15    37   1
    40    15    38   1
    41    16    39   1
    42    16    40   1
    43    17    41   1
    44    17    42   1
    45    18    43   1
    46    18    44   1
@<TRIPOS>SUBSTRUCTURE
     1  MOL      1

