@<TRIPOS>MOLECULE
2pcp_ligand_048
    44    46
SMALL
GAST_HUCK
****
This file was generated by PARSER (from files_GN.cpp)

@<TRIPOS>ATOM
      1 CP        -10.8125  -28.5046  -15.0485 C.3         1 MOL      -0.0434
      2 CA         -9.8025  -33.5543  -15.4578 C.ar        1 MOL      -0.0018
      3 CB        -11.0866  -33.7075  -14.8529 C.ar        1 MOL      -0.0343
      4 CC        -12.0505  -34.6084  -15.3444 C.ar        1 MOL      -0.0322
      5 CD        -11.7650  -35.4152  -16.4557 C.ar        1 MOL      -0.0340
      6 CE        -10.4996  -35.3265  -17.0565 C.ar        1 MOL      -0.0322
      7 CF         -9.5393  -34.4230  -16.5642 C.ar        1 MOL      -0.0343
      8 CG         -8.7707  -32.5649  -14.8821 C.3         1 MOL      -0.0135
      9 CH         -8.3591  -33.1030  -13.4425 C.3         1 MOL      -0.0293
     10 CI         -7.1943  -32.3414  -12.7506 C.3         1 MOL      -0.0551
     11 CJ         -5.9151  -32.3155  -13.6244 C.3         1 MOL      -0.0541
     12 CK         -6.2391  -31.7878  -15.0448 C.3         1 MOL      -0.0551
     13 CL         -7.3915  -32.6205  -15.6763 C.3         1 MOL      -0.0293
     14 NM         -9.2726  -31.1046  -14.7761 N.4         1 MOL       0.1961
     15 CN        -10.6583  -30.9007  -14.2086 C.3         1 MOL      -0.0361
     16 CO        -10.9298  -29.4248  -13.8110 C.3         1 MOL      -0.0123
     17 CQ         -9.4246  -28.7025  -15.7057 C.3         1 MOL      -0.0123
     18 CR         -9.1107  -30.2062  -15.9823 C.3         1 MOL      -0.0361
     19 H1        -11.5986  -28.7537  -15.7677 H           1 MOL       0.0269
     20 H2        -10.9391  -27.4621  -14.7394 H           1 MOL       0.0269
     21 H3        -11.3415  -33.1413  -14.0391 H           1 MOL       0.0852
     22 H4        -12.9573  -34.6921  -14.8801 H           1 MOL       0.0698
     23 H5        -12.4656  -36.0712  -16.8162 H           1 MOL       0.0856
     24 H6        -10.2849  -35.9120  -17.8704 H           1 MOL       0.0698
     25 H7         -8.6306  -34.4245  -17.0359 H           1 MOL       0.0852
     26 H8         -8.0670  -34.1549  -13.5137 H           1 MOL       0.0227
     27 H9         -9.1911  -33.0728  -12.7423 H           1 MOL       0.0227
     28 H10        -6.9550  -32.8452  -11.8125 H           1 MOL       0.0260
     29 H11        -7.5070  -31.3209  -12.5093 H           1 MOL       0.0260
     30 H12        -5.5015  -33.3278  -13.6971 H           1 MOL       0.0265
     31 H13        -5.1502  -31.6806  -13.1626 H           1 MOL       0.0265
     32 H14        -5.3420  -31.8678  -15.6681 H           1 MOL       0.0260
     33 H15        -6.5144  -30.7253  -14.9943 H           1 MOL       0.0260
     34 H16        -7.5096  -32.2956  -16.7118 H           1 MOL       0.0227
     35 H17        -7.0337  -33.6530  -15.7369 H           1 MOL       0.0227
     36 H18        -8.6525  -30.6809  -14.0819 H           1 MOL       0.1993
     37 H19       -11.4170  -31.2041  -14.9338 H           1 MOL       0.0815
     38 H20       -10.8076  -31.4993  -13.3126 H           1 MOL       0.0815
     39 H21       -11.9337  -29.3357  -13.3855 H           1 MOL       0.0317
     40 H22       -10.2060  -29.1048  -13.0492 H           1 MOL       0.0317
     41 H23        -8.6538  -28.2854  -15.0436 H           1 MOL       0.0317
     42 H24        -9.3988  -28.1414  -16.6490 H           1 MOL       0.0317
     43 H25        -9.7527  -30.5561  -16.7884 H           1 MOL       0.0815
     44 H26        -8.0800  -30.2062  -16.3385 H           1 MOL       0.0815
@<TRIPOS>BOND
     1     1    17   1
     2     1    16   1
     3    16    15   1
     4    15    14   1
     5    14    18   1
     6    14     8   1
     7     8    13   1
     8     8     9   1
     9     8     2   1
    10     2     7  ar
    11     2     3  ar
    12     3     4  ar
    13     4     5  ar
    14     5     6  ar
    15     6     7  ar
    16     9    10   1
    17    10    11   1
    18    11    12   1
    19    12    13   1
    20    18    17   1
    21     1    19   1
    22     1    20   1
    23     3    21   1
    24     4    22   1
    25     5    23   1
    26     6    24   1
    27     7    25   1
    28     9    26   1
    29     9    27   1
    30    10    28   1
    31    10    29   1
    32    11    30   1
    33    11    31   1
    34    12    32   1
    35    12    33   1
    36    13    34   1
    37    13    35   1
    38    14    36   1
    39    15    37   1
    40    15    38   1
    41    16    39   1
    42    16    40   1
    43    17    41   1
    44    17    42   1
    45    18    43   1
    46    18    44   1
@<TRIPOS>SUBSTRUCTURE
     1  MOL      1

