@<TRIPOS>MOLECULE
2pcp_ligand_028
    44    46
SMALL
GAST_HUCK
****
This file was generated by PARSER (from files_GN.cpp)

@<TRIPOS>ATOM
      1 CP         -7.3560  -31.6168  -14.5851 C.3         1 MOL      -0.0434
      2 CA        -12.1787  -29.7445  -15.2479 C.ar        1 MOL      -0.0018
      3 CB        -12.2250  -31.1388  -14.9634 C.ar        1 MOL      -0.0343
      4 CC        -13.3771  -31.9286  -15.1448 C.ar        1 MOL      -0.0322
      5 CD        -14.5565  -31.3405  -15.6077 C.ar        1 MOL      -0.0340
      6 CE        -14.5758  -29.9690  -15.8909 C.ar        1 MOL      -0.0322
      7 CF        -13.4084  -29.2054  -15.7178 C.ar        1 MOL      -0.0343
      8 CG        -10.9415  -28.8626  -14.9857 C.3         1 MOL      -0.0135
      9 CH        -10.6544  -27.8348  -16.1749 C.3         1 MOL      -0.0293
     10 CI        -11.3701  -26.4543  -16.2550 C.3         1 MOL      -0.0551
     11 CJ        -11.5696  -25.7798  -14.8843 C.3         1 MOL      -0.0541
     12 CK        -12.1401  -26.7483  -13.8349 C.3         1 MOL      -0.0551
     13 CL        -11.2212  -27.9925  -13.6980 C.3         1 MOL      -0.0293
     14 NM         -9.6003  -29.6275  -14.7943 N.4         1 MOL       0.1961
     15 CN         -9.1584  -30.4870  -15.9607 C.3         1 MOL      -0.0361
     16 CO         -7.6658  -30.8827  -15.9065 C.3         1 MOL      -0.0123
     17 CQ         -7.7803  -30.7412  -13.3845 C.3         1 MOL      -0.0123
     18 CR         -9.2616  -30.2986  -13.4775 C.3         1 MOL      -0.0361
     19 H1         -7.8986  -32.5656  -14.5577 H           1 MOL       0.0269
     20 H2         -6.2923  -31.8348  -14.5288 H           1 MOL       0.0269
     21 H3        -11.4211  -31.6380  -14.6216 H           1 MOL       0.0852
     22 H4        -13.3532  -32.9298  -14.9290 H           1 MOL       0.0698
     23 H5        -15.4003  -31.9073  -15.7342 H           1 MOL       0.0856
     24 H6        -15.4395  -29.5298  -16.2125 H           1 MOL       0.0698
     25 H7        -13.4980  -28.2251  -15.9346 H           1 MOL       0.0852
     26 H8        -10.8376  -28.3280  -17.1305 H           1 MOL       0.0227
     27 H9         -9.5878  -27.5765  -16.1643 H           1 MOL       0.0227
     28 H10       -12.3351  -26.5476  -16.7578 H           1 MOL       0.0260
     29 H11       -10.7827  -25.7789  -16.8817 H           1 MOL       0.0260
     30 H12       -12.2361  -24.9141  -14.9953 H           1 MOL       0.0265
     31 H13       -10.6006  -25.4137  -14.5330 H           1 MOL       0.0265
     32 H14       -13.1588  -27.0348  -14.0995 H           1 MOL       0.0260
     33 H15       -12.1937  -26.2300  -12.8732 H           1 MOL       0.0260
     34 H16       -10.2702  -27.5970  -13.3342 H           1 MOL       0.0227
     35 H17       -11.6268  -28.6215  -12.9020 H           1 MOL       0.0227
     36 H18        -8.9145  -28.8714  -14.7992 H           1 MOL       0.1993
     37 H19        -9.7313  -31.4041  -16.0118 H           1 MOL       0.0815
     38 H20        -9.2966  -29.9688  -16.9061 H           1 MOL       0.0815
     39 H21        -7.4286  -31.5397  -16.7495 H           1 MOL       0.0317
     40 H22        -7.0385  -29.9927  -15.9899 H           1 MOL       0.0317
     41 H23        -7.1437  -29.8530  -13.3505 H           1 MOL       0.0317
     42 H24        -7.6314  -31.3114  -12.4649 H           1 MOL       0.0317
     43 H25        -9.8738  -31.1622  -13.2482 H           1 MOL       0.0815
     44 H26        -9.3960  -29.6049  -12.6529 H           1 MOL       0.0815
@<TRIPOS>BOND
     1     1    17   1
     2     1    16   1
     3    16    15   1
     4    15    14   1
     5    14    18   1
     6    14     8   1
     7     8    13   1
     8     8     9   1
     9     8     2   1
    10     2     7  ar
    11     2     3  ar
    12     3     4  ar
    13     4     5  ar
    14     5     6  ar
    15     6     7  ar
    16     9    10   1
    17    10    11   1
    18    11    12   1
    19    12    13   1
    20    18    17   1
    21     1    19   1
    22     1    20   1
    23     3    21   1
    24     4    22   1
    25     5    23   1
    26     6    24   1
    27     7    25   1
    28     9    26   1
    29     9    27   1
    30    10    28   1
    31    10    29   1
    32    11    30   1
    33    11    31   1
    34    12    32   1
    35    12    33   1
    36    13    34   1
    37    13    35   1
    38    14    36   1
    39    15    37   1
    40    15    38   1
    41    16    39   1
    42    16    40   1
    43    17    41   1
    44    17    42   1
    45    18    43   1
    46    18    44   1
@<TRIPOS>SUBSTRUCTURE
     1  MOL      1

