@<TRIPOS>MOLECULE
2pcp_ligand_029
    44    46
SMALL
GAST_HUCK
****
This file was generated by PARSER (from files_GN.cpp)

@<TRIPOS>ATOM
      1 CP        -11.9341  -33.9087   -9.2111 C.3         1 MOL      -0.0434
      2 CA        -11.1699  -32.7558  -14.2931 C.ar        1 MOL      -0.0018
      3 CB         -9.8320  -32.5216  -14.7256 C.ar        1 MOL      -0.0343
      4 CC         -9.3892  -31.2556  -15.1469 C.ar        1 MOL      -0.0322
      5 CD        -10.2735  -30.1677  -15.1510 C.ar        1 MOL      -0.0340
      6 CE        -11.5910  -30.3475  -14.7051 C.ar        1 MOL      -0.0322
      7 CF        -12.0182  -31.6112  -14.2602 C.ar        1 MOL      -0.0343
      8 CG        -11.6585  -34.0965  -13.7249 C.3         1 MOL      -0.0135
      9 CH        -12.9720  -34.5116  -14.5164 C.3         1 MOL      -0.0293
     10 CI        -12.7230  -34.7990  -16.0244 C.3         1 MOL      -0.0551
     11 CJ        -11.7347  -35.9766  -16.1948 C.3         1 MOL      -0.0541
     12 CK        -10.4133  -35.7296  -15.4234 C.3         1 MOL      -0.0551
     13 CL        -10.6667  -35.3154  -13.9430 C.3         1 MOL      -0.0293
     14 NM        -11.9543  -33.8803  -12.2289 N.4         1 MOL       0.1961
     15 CN        -10.8750  -33.1899  -11.4218 C.3         1 MOL      -0.0361
     16 CO        -11.3905  -32.7205  -10.0351 C.3         1 MOL      -0.0123
     17 CQ        -12.9841  -34.6901  -10.0301 C.3         1 MOL      -0.0123
     18 CR        -12.4380  -35.0741  -11.4287 C.3         1 MOL      -0.0361
     19 H1        -11.1060  -34.5685   -8.9416 H           1 MOL       0.0269
     20 H2        -12.3894  -33.5406   -8.2911 H           1 MOL       0.0269
     21 H3         -9.1317  -33.2595  -14.6925 H           1 MOL       0.0852
     22 H4         -8.4130  -31.1195  -15.4233 H           1 MOL       0.0698
     23 H5         -9.9531  -29.2453  -15.4561 H           1 MOL       0.0856
     24 H6        -12.2275  -29.5460  -14.6674 H           1 MOL       0.0698
     25 H7        -12.9563  -31.6742  -13.8702 H           1 MOL       0.0852
     26 H8        -13.7558  -33.7611  -14.4339 H           1 MOL       0.0227
     27 H9        -13.3980  -35.4274  -14.1060 H           1 MOL       0.0227
     28 H10       -12.3240  -33.9126  -16.5170 H           1 MOL       0.0260
     29 H11       -13.6695  -35.0525  -16.5130 H           1 MOL       0.0260
     30 H12       -11.5188  -36.1273  -17.2568 H           1 MOL       0.0265
     31 H13       -12.2028  -36.8915  -15.8172 H           1 MOL       0.0265
     32 H14        -9.8307  -34.9675  -15.9439 H           1 MOL       0.0260
     33 H15        -9.8275  -36.6510  -15.4435 H           1 MOL       0.0260
     34 H16       -11.0747  -36.2075  -13.4652 H           1 MOL       0.0227
     35 H17        -9.7076  -35.1241  -13.4557 H           1 MOL       0.0227
     36 H18       -12.7421  -33.2249  -12.2239 H           1 MOL       0.1993
     37 H19       -10.0167  -33.8546  -11.2870 H           1 MOL       0.0815
     38 H20       -10.5126  -32.2859  -11.9097 H           1 MOL       0.0815
     39 H21       -10.5811  -32.2325   -9.4827 H           1 MOL       0.0317
     40 H22       -12.1907  -31.9895  -10.1791 H           1 MOL       0.0317
     41 H23       -13.8868  -34.0781  -10.1477 H           1 MOL       0.0317
     42 H24       -13.2627  -35.5952   -9.4830 H           1 MOL       0.0317
     43 H25       -11.6263  -35.7890  -11.2823 H           1 MOL       0.0815
     44 H26       -13.2443  -35.5990  -11.9345 H           1 MOL       0.0815
@<TRIPOS>BOND
     1     1    17   1
     2     1    16   1
     3    16    15   1
     4    15    14   1
     5    14    18   1
     6    14     8   1
     7     8    13   1
     8     8     9   1
     9     8     2   1
    10     2     7  ar
    11     2     3  ar
    12     3     4  ar
    13     4     5  ar
    14     5     6  ar
    15     6     7  ar
    16     9    10   1
    17    10    11   1
    18    11    12   1
    19    12    13   1
    20    18    17   1
    21     1    19   1
    22     1    20   1
    23     3    21   1
    24     4    22   1
    25     5    23   1
    26     6    24   1
    27     7    25   1
    28     9    26   1
    29     9    27   1
    30    10    28   1
    31    10    29   1
    32    11    30   1
    33    11    31   1
    34    12    32   1
    35    12    33   1
    36    13    34   1
    37    13    35   1
    38    14    36   1
    39    15    37   1
    40    15    38   1
    41    16    39   1
    42    16    40   1
    43    17    41   1
    44    17    42   1
    45    18    43   1
    46    18    44   1
@<TRIPOS>SUBSTRUCTURE
     1  MOL      1

