@<TRIPOS>MOLECULE
2pcp_ligand_002
    44    46
SMALL
GAST_HUCK
****
This file was generated by PARSER (from files_GN.cpp)

@<TRIPOS>ATOM
      1 CP         -7.7377  -30.3110  -14.5613 C.3         1 MOL      -0.0434
      2 CA         -4.1573  -26.6961  -12.7612 C.ar        1 MOL      -0.0018
      3 CB         -3.0700  -27.0529  -13.6185 C.ar        1 MOL      -0.0343
      4 CC         -1.7829  -27.3574  -13.1432 C.ar        1 MOL      -0.0322
      5 CD         -1.4832  -27.1680  -11.7884 C.ar        1 MOL      -0.0340
      6 CE         -2.4775  -26.7138  -10.9186 C.ar        1 MOL      -0.0322
      7 CF         -3.7926  -26.5376  -11.3905 C.ar        1 MOL      -0.0343
      8 CG         -5.6002  -26.4918  -13.2892 C.3         1 MOL      -0.0135
      9 CH         -6.4049  -25.5352  -12.2951 C.3         1 MOL      -0.0293
     10 CI         -7.6876  -24.7926  -12.7906 C.3         1 MOL      -0.0551
     11 CJ         -7.4585  -24.0570  -14.1281 C.3         1 MOL      -0.0541
     12 CK         -6.8237  -24.9976  -15.1718 C.3         1 MOL      -0.0551
     13 CL         -5.5259  -25.6401  -14.6227 C.3         1 MOL      -0.0293
     14 NM         -6.2295  -27.9088  -13.4530 N.4         1 MOL       0.1961
     15 CN         -5.7380  -28.7495  -14.6146 C.3         1 MOL      -0.0361
     16 CO         -6.1998  -30.2316  -14.5984 C.3         1 MOL      -0.0123
     17 CQ         -8.2814  -29.4948  -13.3706 C.3         1 MOL      -0.0123
     18 CR         -7.7270  -28.0461  -13.3495 C.3         1 MOL      -0.0361
     19 H1         -8.1395  -29.9165  -15.4998 H           1 MOL       0.0269
     20 H2         -8.0516  -31.3503  -14.4778 H           1 MOL       0.0269
     21 H3         -3.2040  -27.1173  -14.6225 H           1 MOL       0.0852
     22 H4         -1.0569  -27.7034  -13.7765 H           1 MOL       0.0698
     23 H5         -0.5353  -27.3430  -11.4429 H           1 MOL       0.0856
     24 H6         -2.2547  -26.5459   -9.9353 H           1 MOL       0.0698
     25 H7         -4.4818  -26.2822  -10.6960 H           1 MOL       0.0852
     26 H8         -5.7336  -24.7256  -11.9857 H           1 MOL       0.0227
     27 H9         -6.6719  -26.0815  -11.3862 H           1 MOL       0.0227
     28 H10        -7.9898  -24.0602  -12.0349 H           1 MOL       0.0260
     29 H11        -8.5287  -25.4735  -12.9009 H           1 MOL       0.0260
     30 H12        -6.8107  -23.1922  -13.9630 H           1 MOL       0.0265
     31 H13        -8.4068  -23.6857  -14.5135 H           1 MOL       0.0265
     32 H14        -6.5788  -24.4157  -16.0641 H           1 MOL       0.0260
     33 H15        -7.5360  -25.7642  -15.4752 H           1 MOL       0.0260
     34 H16        -5.1208  -26.2332  -15.4351 H           1 MOL       0.0227
     35 H17        -4.8206  -24.8134  -14.4679 H           1 MOL       0.0227
     36 H18        -5.9020  -28.4407  -12.6424 H           1 MOL       0.1993
     37 H19        -6.0555  -28.3202  -15.5653 H           1 MOL       0.0815
     38 H20        -4.6523  -28.7911  -14.6211 H           1 MOL       0.0815
     39 H21        -5.8285  -30.7486  -15.4912 H           1 MOL       0.0317
     40 H22        -5.7770  -30.7415  -13.7256 H           1 MOL       0.0317
     41 H23        -8.0162  -29.9955  -12.4397 H           1 MOL       0.0317
     42 H24        -9.3716  -29.4625  -13.4274 H           1 MOL       0.0317
     43 H25        -8.2151  -27.4879  -14.1513 H           1 MOL       0.0815
     44 H26        -8.0584  -27.6441  -12.3940 H           1 MOL       0.0815
@<TRIPOS>BOND
     1     1    17   1
     2     1    16   1
     3    16    15   1
     4    15    14   1
     5    14    18   1
     6    14     8   1
     7     8    13   1
     8     8     9   1
     9     8     2   1
    10     2     7  ar
    11     2     3  ar
    12     3     4  ar
    13     4     5  ar
    14     5     6  ar
    15     6     7  ar
    16     9    10   1
    17    10    11   1
    18    11    12   1
    19    12    13   1
    20    18    17   1
    21     1    19   1
    22     1    20   1
    23     3    21   1
    24     4    22   1
    25     5    23   1
    26     6    24   1
    27     7    25   1
    28     9    26   1
    29     9    27   1
    30    10    28   1
    31    10    29   1
    32    11    30   1
    33    11    31   1
    34    12    32   1
    35    12    33   1
    36    13    34   1
    37    13    35   1
    38    14    36   1
    39    15    37   1
    40    15    38   1
    41    16    39   1
    42    16    40   1
    43    17    41   1
    44    17    42   1
    45    18    43   1
    46    18    44   1
@<TRIPOS>SUBSTRUCTURE
     1  MOL      1

