@<TRIPOS>MOLECULE
2pcp_ligand_047
    44    46
SMALL
GAST_HUCK
****
This file was generated by PARSER (from files_GN.cpp)

@<TRIPOS>ATOM
      1 CP        -11.3756  -35.4891  -10.8433 C.3         1 MOL      -0.0434
      2 CA        -11.2595  -33.9966  -15.6381 C.ar        1 MOL      -0.0018
      3 CB        -12.4560  -34.2988  -16.3531 C.ar        1 MOL      -0.0343
      4 CC        -12.4973  -35.2911  -17.3535 C.ar        1 MOL      -0.0322
      5 CD        -11.3461  -36.0346  -17.6578 C.ar        1 MOL      -0.0340
      6 CE        -10.1588  -35.7898  -16.9455 C.ar        1 MOL      -0.0322
      7 CF        -10.1325  -34.7990  -15.9474 C.ar        1 MOL      -0.0343
      8 CG        -11.2033  -32.9192  -14.5432 C.3         1 MOL      -0.0135
      9 CH         -9.9078  -32.0234  -14.7545 C.3         1 MOL      -0.0293
     10 CI         -9.7630  -30.8395  -13.7619 C.3         1 MOL      -0.0551
     11 CJ        -10.9721  -29.8830  -13.8646 C.3         1 MOL      -0.0541
     12 CK        -12.3003  -30.6501  -13.6907 C.3         1 MOL      -0.0551
     13 CL        -12.3760  -31.8534  -14.6727 C.3         1 MOL      -0.0293
     14 NM        -11.2576  -33.5774  -13.1523 N.4         1 MOL       0.1961
     15 CN        -10.0369  -34.3357  -12.6835 C.3         1 MOL      -0.0361
     16 CO        -10.1027  -34.6772  -11.1739 C.3         1 MOL      -0.0123
     17 CQ        -12.6353  -34.7764  -11.3820 C.3         1 MOL      -0.0123
     18 CR        -12.4808  -34.4234  -12.8821 C.3         1 MOL      -0.0361
     19 H1        -11.3027  -36.4824  -11.2912 H           1 MOL       0.0269
     20 H2        -11.4638  -35.6113   -9.7633 H           1 MOL       0.0269
     21 H3        -13.3300  -33.8153  -16.1657 H           1 MOL       0.0852
     22 H4        -13.3688  -35.4820  -17.8511 H           1 MOL       0.0698
     23 H5        -11.3703  -36.7482  -18.3845 H           1 MOL       0.0856
     24 H6         -9.3252  -36.3415  -17.1453 H           1 MOL       0.0698
     25 H7         -9.2496  -34.6735  -15.4542 H           1 MOL       0.0852
     26 H8         -9.9202  -31.6067  -15.7629 H           1 MOL       0.0227
     27 H9         -8.9888  -32.5996  -14.6965 H           1 MOL       0.0227
     28 H10        -8.8503  -30.2871  -13.9922 H           1 MOL       0.0260
     29 H11        -9.6718  -31.2226  -12.7443 H           1 MOL       0.0260
     30 H12       -10.9620  -29.3938  -14.8419 H           1 MOL       0.0265
     31 H13       -10.8919  -29.1038  -13.1028 H           1 MOL       0.0265
     32 H14       -13.1302  -29.9681  -13.8841 H           1 MOL       0.0260
     33 H15       -12.3985  -31.0028  -12.6630 H           1 MOL       0.0260
     34 H16       -13.3645  -32.2909  -14.5318 H           1 MOL       0.0227
     35 H17       -12.3817  -31.4403  -15.6883 H           1 MOL       0.0227
     36 H18       -11.3242  -32.7947  -12.4988 H           1 MOL       0.1993
     37 H19        -9.9181  -35.2677  -13.2397 H           1 MOL       0.0815
     38 H20        -9.1257  -33.7569  -12.8130 H           1 MOL       0.0815
     39 H21        -9.2240  -35.2584  -10.8903 H           1 MOL       0.0317
     40 H22       -10.1009  -33.7506  -10.5965 H           1 MOL       0.0317
     41 H23       -12.8106  -33.8581  -10.8129 H           1 MOL       0.0317
     42 H24       -13.5047  -35.4253  -11.2478 H           1 MOL       0.0317
     43 H25       -12.4420  -35.3486  -13.4645 H           1 MOL       0.0815
     44 H26       -13.3978  -33.9113  -13.1629 H           1 MOL       0.0815
@<TRIPOS>BOND
     1     1    17   1
     2     1    16   1
     3    16    15   1
     4    15    14   1
     5    14    18   1
     6    14     8   1
     7     8    13   1
     8     8     9   1
     9     8     2   1
    10     2     7  ar
    11     2     3  ar
    12     3     4  ar
    13     4     5  ar
    14     5     6  ar
    15     6     7  ar
    16     9    10   1
    17    10    11   1
    18    11    12   1
    19    12    13   1
    20    18    17   1
    21     1    19   1
    22     1    20   1
    23     3    21   1
    24     4    22   1
    25     5    23   1
    26     6    24   1
    27     7    25   1
    28     9    26   1
    29     9    27   1
    30    10    28   1
    31    10    29   1
    32    11    30   1
    33    11    31   1
    34    12    32   1
    35    12    33   1
    36    13    34   1
    37    13    35   1
    38    14    36   1
    39    15    37   1
    40    15    38   1
    41    16    39   1
    42    16    40   1
    43    17    41   1
    44    17    42   1
    45    18    43   1
    46    18    44   1
@<TRIPOS>SUBSTRUCTURE
     1  MOL      1

