@<TRIPOS>MOLECULE
2pcp_ligand_036
    44    46
SMALL
GAST_HUCK
****
This file was generated by PARSER (from files_GN.cpp)

@<TRIPOS>ATOM
      1 CP         -1.6018  -27.2502  -12.9143 C.3         1 MOL      -0.0434
      2 CA         -6.8618  -27.4043  -13.7611 C.ar        1 MOL      -0.0018
      3 CB         -8.2041  -27.1672  -14.1706 C.ar        1 MOL      -0.0343
      4 CC         -8.9509  -28.0809  -14.9339 C.ar        1 MOL      -0.0322
      5 CD         -8.3698  -29.2868  -15.3445 C.ar        1 MOL      -0.0340
      6 CE         -7.0556  -29.5838  -14.9600 C.ar        1 MOL      -0.0322
      7 CF         -6.3408  -28.6768  -14.1512 C.ar        1 MOL      -0.0343
      8 CG         -6.0741  -26.3923  -12.8962 C.3         1 MOL      -0.0135
      9 CH         -6.0857  -24.9349  -13.5270 C.3         1 MOL      -0.0293
     10 CI         -7.3141  -24.0040  -13.3117 C.3         1 MOL      -0.0551
     11 CJ         -7.8211  -24.0439  -11.8520 C.3         1 MOL      -0.0541
     12 CK         -8.0685  -25.4733  -11.3245 C.3         1 MOL      -0.0551
     13 CL         -6.8084  -26.3727  -11.4877 C.3         1 MOL      -0.0293
     14 NM         -4.5871  -26.8256  -12.7575 N.4         1 MOL       0.1961
     15 CN         -3.8144  -26.7947  -14.0602 C.3         1 MOL      -0.0361
     16 CO         -2.5903  -27.7385  -13.9925 C.3         1 MOL      -0.0123
     17 CQ         -2.3301  -27.0377  -11.5665 C.3         1 MOL      -0.0123
     18 CR         -3.6620  -26.2411  -11.7033 C.3         1 MOL      -0.0361
     19 H1         -0.8021  -27.9858  -12.7914 H           1 MOL       0.0269
     20 H2         -1.1427  -26.3164  -13.2447 H           1 MOL       0.0269
     21 H3         -8.6913  -26.3275  -13.9084 H           1 MOL       0.0852
     22 H4         -9.9189  -27.8637  -15.1867 H           1 MOL       0.0698
     23 H5         -8.9065  -29.9454  -15.9153 H           1 MOL       0.0856
     24 H6         -6.6265  -30.4627  -15.2587 H           1 MOL       0.0698
     25 H7         -5.4082  -28.9734  -13.8695 H           1 MOL       0.0852
     26 H8         -5.9139  -25.0041  -14.6056 H           1 MOL       0.0227
     27 H9         -5.2402  -24.3791  -13.1185 H           1 MOL       0.0227
     28 H10        -8.1196  -24.2396  -14.0059 H           1 MOL       0.0260
     29 H11        -7.0199  -22.9770  -13.5478 H           1 MOL       0.0260
     30 H12        -8.7410  -23.4618  -11.7702 H           1 MOL       0.0265
     31 H13        -7.0733  -23.5793  -11.2066 H           1 MOL       0.0265
     32 H14        -8.9446  -25.9108  -11.8012 H           1 MOL       0.0260
     33 H15        -8.3043  -25.3977  -10.2584 H           1 MOL       0.0260
     34 H16        -6.1453  -25.9985  -10.7218 H           1 MOL       0.0227
     35 H17        -7.0721  -27.3903  -11.1786 H           1 MOL       0.0227
     36 H18        -4.6443  -27.8076  -12.4859 H           1 MOL       0.1993
     37 H19        -4.4299  -27.1098  -14.8996 H           1 MOL       0.0815
     38 H20        -3.4719  -25.7808  -14.2975 H           1 MOL       0.0815
     39 H21        -2.9372  -28.7430  -13.7493 H           1 MOL       0.0317
     40 H22        -2.0840  -27.7770  -14.9592 H           1 MOL       0.0317
     41 H23        -1.6568  -26.5195  -10.8768 H           1 MOL       0.0317
     42 H24        -2.5480  -28.0207  -11.1436 H           1 MOL       0.0317
     43 H25        -4.0903  -26.2802  -10.7083 H           1 MOL       0.0815
     44 H26        -3.4277  -25.1934  -11.9141 H           1 MOL       0.0815
@<TRIPOS>BOND
     1     1    17   1
     2     1    16   1
     3    16    15   1
     4    15    14   1
     5    14    18   1
     6    14     8   1
     7     8    13   1
     8     8     9   1
     9     8     2   1
    10     2     7  ar
    11     2     3  ar
    12     3     4  ar
    13     4     5  ar
    14     5     6  ar
    15     6     7  ar
    16     9    10   1
    17    10    11   1
    18    11    12   1
    19    12    13   1
    20    18    17   1
    21     1    19   1
    22     1    20   1
    23     3    21   1
    24     4    22   1
    25     5    23   1
    26     6    24   1
    27     7    25   1
    28     9    26   1
    29     9    27   1
    30    10    28   1
    31    10    29   1
    32    11    30   1
    33    11    31   1
    34    12    32   1
    35    12    33   1
    36    13    34   1
    37    13    35   1
    38    14    36   1
    39    15    37   1
    40    15    38   1
    41    16    39   1
    42    16    40   1
    43    17    41   1
    44    17    42   1
    45    18    43   1
    46    18    44   1
@<TRIPOS>SUBSTRUCTURE
     1  MOL      1

