@<TRIPOS>MOLECULE
2pcp_ligand_039
    44    46
SMALL
GAST_HUCK
****
This file was generated by PARSER (from files_GN.cpp)

@<TRIPOS>ATOM
      1 CP         -9.8777  -37.1865  -11.0242 C.3         1 MOL      -0.0434
      2 CA        -10.2083  -34.0510  -15.0080 C.ar        1 MOL      -0.0018
      3 CB         -9.0034  -33.3207  -15.2218 C.ar        1 MOL      -0.0343
      4 CC         -8.1630  -33.5510  -16.3295 C.ar        1 MOL      -0.0322
      5 CD         -8.4698  -34.5725  -17.2383 C.ar        1 MOL      -0.0340
      6 CE         -9.6198  -35.3358  -17.0555 C.ar        1 MOL      -0.0322
      7 CF        -10.4776  -35.0638  -15.9694 C.ar        1 MOL      -0.0343
      8 CG        -11.1319  -33.8394  -13.7993 C.3         1 MOL      -0.0135
      9 CH        -11.0118  -32.3834  -13.1664 C.3         1 MOL      -0.0293
     10 CI        -11.4367  -31.2148  -14.1103 C.3         1 MOL      -0.0551
     11 CJ        -12.9068  -31.3574  -14.5458 C.3         1 MOL      -0.0541
     12 CK        -13.1744  -32.7643  -15.1336 C.3         1 MOL      -0.0551
     13 CL        -12.6747  -33.8905  -14.1906 C.3         1 MOL      -0.0293
     14 NM        -10.8915  -34.9085  -12.7160 N.4         1 MOL       0.1961
     15 CN        -11.0111  -36.3594  -13.1405 C.3         1 MOL      -0.0361
     16 CO        -11.1114  -37.3338  -11.9428 C.3         1 MOL      -0.0123
     17 CQ         -9.6677  -35.7110  -10.6276 C.3         1 MOL      -0.0123
     18 CR         -9.6499  -34.7687  -11.8663 C.3         1 MOL      -0.0361
     19 H1        -10.0138  -37.7968  -10.1262 H           1 MOL       0.0269
     20 H2         -8.9895  -37.5569  -11.5493 H           1 MOL       0.0269
     21 H3         -8.7060  -32.5936  -14.5775 H           1 MOL       0.0852
     22 H4         -7.3170  -32.9872  -16.4633 H           1 MOL       0.0698
     23 H5         -7.8504  -34.7596  -18.0292 H           1 MOL       0.0856
     24 H6         -9.8492  -36.0889  -17.7079 H           1 MOL       0.0698
     25 H7        -11.2975  -35.6583  -15.8971 H           1 MOL       0.0852
     26 H8        -10.0042  -32.1489  -12.8331 H           1 MOL       0.0227
     27 H9        -11.6306  -32.3280  -12.2681 H           1 MOL       0.0227
     28 H10       -10.7944  -31.2018  -14.9912 H           1 MOL       0.0260
     29 H11       -11.3069  -30.2618  -13.5912 H           1 MOL       0.0260
     30 H12       -13.1404  -30.5977  -15.2981 H           1 MOL       0.0265
     31 H13       -13.5617  -31.1937  -13.6843 H           1 MOL       0.0265
     32 H14       -12.6859  -32.8531  -16.1074 H           1 MOL       0.0260
     33 H15       -14.2533  -32.8787  -15.2877 H           1 MOL       0.0260
     34 H16       -13.2741  -33.8512  -13.2724 H           1 MOL       0.0227
     35 H17       -12.9536  -34.8236  -14.6710 H           1 MOL       0.0227
     36 H18       -11.6599  -34.7751  -12.0569 H           1 MOL       0.1993
     37 H19       -11.8958  -36.5380  -13.7438 H           1 MOL       0.0815
     38 H20       -10.1501  -36.6478  -13.7517 H           1 MOL       0.0815
     39 H21       -12.0206  -37.1242  -11.3747 H           1 MOL       0.0317
     40 H22       -11.1707  -38.3641  -12.3047 H           1 MOL       0.0317
     41 H23        -8.7268  -35.6182  -10.0830 H           1 MOL       0.0317
     42 H24       -10.4756  -35.4046   -9.9600 H           1 MOL       0.0317
     43 H25        -9.5650  -33.7674  -11.4470 H           1 MOL       0.0815
     44 H26        -8.7522  -34.9609  -12.4678 H           1 MOL       0.0815
@<TRIPOS>BOND
     1     1    17   1
     2     1    16   1
     3    16    15   1
     4    15    14   1
     5    14    18   1
     6    14     8   1
     7     8    13   1
     8     8     9   1
     9     8     2   1
    10     2     7  ar
    11     2     3  ar
    12     3     4  ar
    13     4     5  ar
    14     5     6  ar
    15     6     7  ar
    16     9    10   1
    17    10    11   1
    18    11    12   1
    19    12    13   1
    20    18    17   1
    21     1    19   1
    22     1    20   1
    23     3    21   1
    24     4    22   1
    25     5    23   1
    26     6    24   1
    27     7    25   1
    28     9    26   1
    29     9    27   1
    30    10    28   1
    31    10    29   1
    32    11    30   1
    33    11    31   1
    34    12    32   1
    35    12    33   1
    36    13    34   1
    37    13    35   1
    38    14    36   1
    39    15    37   1
    40    15    38   1
    41    16    39   1
    42    16    40   1
    43    17    41   1
    44    17    42   1
    45    18    43   1
    46    18    44   1
@<TRIPOS>SUBSTRUCTURE
     1  MOL      1

