@<TRIPOS>MOLECULE
2pcp_ligand_040
    44    46
SMALL
GAST_HUCK
****
This file was generated by PARSER (from files_GN.cpp)

@<TRIPOS>ATOM
      1 CP        -14.7386  -29.3369  -11.1240 C.3         1 MOL      -0.0434
      2 CA        -13.1920  -30.5587  -15.7751 C.ar        1 MOL      -0.0018
      3 CB        -13.6356  -29.3205  -16.3237 C.ar        1 MOL      -0.0343
      4 CC        -14.5479  -29.2526  -17.3925 C.ar        1 MOL      -0.0322
      5 CD        -15.0685  -30.4307  -17.9445 C.ar        1 MOL      -0.0340
      6 CE        -14.6869  -31.6706  -17.4122 C.ar        1 MOL      -0.0322
      7 CF        -13.7706  -31.7292  -16.3452 C.ar        1 MOL      -0.0343
      8 CG        -12.1796  -30.5999  -14.6247 C.3         1 MOL      -0.0135
      9 CH        -11.4839  -32.0239  -14.4618 C.3         1 MOL      -0.0293
     10 CI        -10.3452  -32.0978  -13.4068 C.3         1 MOL      -0.0551
     11 CJ         -9.2271  -31.0695  -13.6965 C.3         1 MOL      -0.0541
     12 CK         -9.8042  -29.6559  -13.9350 C.3         1 MOL      -0.0551
     13 CL        -10.9401  -29.6762  -14.9939 C.3         1 MOL      -0.0293
     14 NM        -12.8513  -30.2102  -13.2983 N.4         1 MOL       0.1961
     15 CN        -13.2047  -28.7573  -13.0857 C.3         1 MOL      -0.0361
     16 CO        -13.5777  -28.4421  -11.6140 C.3         1 MOL      -0.0123
     17 CQ        -14.4385  -30.8264  -11.4079 C.3         1 MOL      -0.0123
     18 CR        -14.0396  -31.0522  -12.8897 C.3         1 MOL      -0.0361
     19 H1        -14.8846  -29.1932  -10.0502 H           1 MOL       0.0269
     20 H2        -15.6626  -29.0465  -11.6312 H           1 MOL       0.0269
     21 H3        -13.2952  -28.4316  -15.9614 H           1 MOL       0.0852
     22 H4        -14.8309  -28.3440  -17.7682 H           1 MOL       0.0698
     23 H5        -15.7304  -30.3864  -18.7229 H           1 MOL       0.0856
     24 H6        -15.0768  -32.5320  -17.8017 H           1 MOL       0.0698
     25 H7        -13.5434  -32.6579  -15.9951 H           1 MOL       0.0852
     26 H8        -11.0551  -32.3300  -15.4205 H           1 MOL       0.0227
     27 H9        -12.1921  -32.8049  -14.1978 H           1 MOL       0.0227
     28 H10        -9.9097  -33.1011  -13.4167 H           1 MOL       0.0260
     29 H11       -10.7537  -31.9309  -12.4080 H           1 MOL       0.0260
     30 H12        -8.6701  -31.3812  -14.5847 H           1 MOL       0.0265
     31 H13        -8.5295  -31.0410  -12.8553 H           1 MOL       0.0265
     32 H14        -9.0005  -28.9965  -14.2760 H           1 MOL       0.0260
     33 H15       -10.1829  -29.2503  -12.9949 H           1 MOL       0.0260
     34 H16       -11.2285  -28.6403  -15.1588 H           1 MOL       0.0227
     35 H17       -10.5064  -30.0089  -15.9421 H           1 MOL       0.0227
     36 H18       -12.1386  -30.3965  -12.5937 H           1 MOL       0.1993
     37 H19       -12.3722  -28.0993  -13.3246 H           1 MOL       0.0815
     38 H20       -14.0475  -28.4740  -13.7180 H           1 MOL       0.0815
     39 H21       -12.7052  -28.6018  -10.9778 H           1 MOL       0.0317
     40 H22       -13.8661  -27.3914  -11.5235 H           1 MOL       0.0317
     41 H23       -15.3236  -31.4232  -11.1706 H           1 MOL       0.0317
     42 H24       -13.6221  -31.1616  -10.7609 H           1 MOL       0.0317
     43 H25       -13.8393  -32.1167  -12.9825 H           1 MOL       0.0815
     44 H26       -14.9015  -30.8335  -13.5283 H           1 MOL       0.0815
@<TRIPOS>BOND
     1     1    17   1
     2     1    16   1
     3    16    15   1
     4    15    14   1
     5    14    18   1
     6    14     8   1
     7     8    13   1
     8     8     9   1
     9     8     2   1
    10     2     7  ar
    11     2     3  ar
    12     3     4  ar
    13     4     5  ar
    14     5     6  ar
    15     6     7  ar
    16     9    10   1
    17    10    11   1
    18    11    12   1
    19    12    13   1
    20    18    17   1
    21     1    19   1
    22     1    20   1
    23     3    21   1
    24     4    22   1
    25     5    23   1
    26     6    24   1
    27     7    25   1
    28     9    26   1
    29     9    27   1
    30    10    28   1
    31    10    29   1
    32    11    30   1
    33    11    31   1
    34    12    32   1
    35    12    33   1
    36    13    34   1
    37    13    35   1
    38    14    36   1
    39    15    37   1
    40    15    38   1
    41    16    39   1
    42    16    40   1
    43    17    41   1
    44    17    42   1
    45    18    43   1
    46    18    44   1
@<TRIPOS>SUBSTRUCTURE
     1  MOL      1

