@<TRIPOS>MOLECULE
2pq9_ligand_017
    36    36
SMALL
GAST_HUCK
****
This file was generated by PARSER (from files_GN.cpp)

@<TRIPOS>ATOM
      1 C1         59.5382    8.9688   26.7379 C.2         1 GG9      -0.0206
      2 C2         58.5899    8.3144   26.0148 C.2         1 GG9      -0.0423
      3 C3         57.4312    7.6445   26.5966 C.3         1 GG9       0.1415
      4 C4         57.5688    7.4661   28.1437 C.3         1 GG9       0.1216
      5 C5         58.0440    8.7967   28.7958 C.3         1 GG9       0.0983
      6 C6         59.4303    9.1557   28.1861 C.3         1 GG9       0.0036
      7 C7         60.6488    9.4677   26.0791 C.2         1 GG9       0.0477
      8 O1         57.2530    6.4097   25.8443 O.3         1 GG9      -0.2592
      9 O2         58.5016    6.4142   28.4241 O.3         1 GG9      -0.3840
     10 O3         57.1454    9.8917   28.5427 O.3         1 GG9      -0.3316
     11 O4         60.5857   10.7484   25.6503 O.co2       1 GG9      -0.5666
     12 O5         61.8759    8.9907   26.3837 O.co2       1 GG9      -0.5666
     13 P1         56.1695    5.3651   26.2415 P.3         1 GG9       0.2044
     14 O6         55.9707    4.5511   25.0696 O.co2       1 GG9      -0.5536
     15 O7         54.8981    5.9299   26.6305 O.co2       1 GG9      -0.5536
     16 O8         56.6811    4.4945   27.2708 O.co2       1 GG9      -0.5536
     17 C8         55.9752   10.2673   29.3395 C.3         1 GG9       0.3058
     18 C9         56.2733   10.2606   30.8834 C.3         1 GG9       0.3020
     19 C10        54.7836    9.4419   28.9922 C.2         1 GG9       0.1145
     20 O9         53.8675    9.8934   28.0822 O.co2       1 GG9      -0.5422
     21 O10        54.3864    8.3765   29.7327 O.co2       1 GG9      -0.5422
     22 P2         56.0546   12.4889   27.8695 P.3         1 GG9       0.2040
     23 O11        55.0484   13.4383   27.4631 O.co2       1 GG9      -0.5537
     24 O12        56.3350   11.6904   26.7048 O.co2       1 GG9      -0.5537
     25 O13        57.2078   13.2781   28.2292 O.co2       1 GG9      -0.5537
     26 O14        55.5415   11.6412   29.0868 O.3         1 GG9      -0.2326
     27 F1         56.7653    9.0625   31.3748 F           1 GG9      -0.2037
     28 F2         57.1917   11.2398   31.1756 F           1 GG9      -0.2037
     29 H1         58.6883    8.2753   25.0218 H           1 GG9       0.0595
     30 H2         56.5678    8.2852   26.3807 H           1 GG9       0.0831
     31 H3         56.6078    7.1667   28.5710 H           1 GG9       0.0674
     32 H4         58.1749    8.6604   29.8747 H           1 GG9       0.0643
     33 H5         59.6653   10.1956   28.4402 H           1 GG9       0.0411
     34 H6         60.1986    8.5328   28.6597 H           1 GG9       0.0411
     35 H7         58.8947    6.6530   29.2922 H           1 GG9       0.2103
     36 H8         55.3426   10.4776   31.4303 H           1 GG9       0.1071
@<TRIPOS>BOND
     1     1     2   2
     2     6     1   1
     3     1     7   1
     4     3     2   1
     5     4     3   1
     6     3     8   1
     7     5     4   1
     8     4     9   1
     9     5     6   1
    10    10     5   1
    11     7    11  ar
    12     7    12  ar
    13     8    13   1
    14    17    10   1
    15    13    14  ar
    16    13    15  ar
    17    13    16  ar
    18    17    18   1
    19    17    19   1
    20    26    17   1
    21    18    27   1
    22    18    28   1
    23    19    20  ar
    24    19    21  ar
    25    22    23  ar
    26    22    24  ar
    27    22    25  ar
    28    22    26   1
    29     2    29   1
    30     3    30   1
    31     4    31   1
    32     5    32   1
    33     6    33   1
    34     6    34   1
    35     9    35   1
    36    18    36   1
@<TRIPOS>SUBSTRUCTURE
     1  GG9      1

