@<TRIPOS>MOLECULE
2pq9_ligand_011
    36    36
SMALL
GAST_HUCK
****
This file was generated by PARSER (from files_GN.cpp)

@<TRIPOS>ATOM
      1 C1         55.8666    6.0313   27.1523 C.2         1 GG9      -0.0206
      2 C2         54.7174    6.6552   27.5009 C.2         1 GG9      -0.0423
      3 C3         54.6130    8.0883   27.7877 C.3         1 GG9       0.1415
      4 C4         55.7981    8.8700   27.1169 C.3         1 GG9       0.1216
      5 C5         57.1177    8.2275   27.5998 C.3         1 GG9       0.0983
      6 C6         57.1494    6.7610   27.0995 C.3         1 GG9       0.0036
      7 C7         55.8753    4.6915   26.7646 C.2         1 GG9       0.0477
      8 O1         54.5016    8.1448   29.2339 O.3         1 GG9      -0.2592
      9 O2         55.7737   10.2762   27.3800 O.3         1 GG9      -0.3840
     10 O3         58.2819    8.9368   27.1218 O.3         1 GG9      -0.3316
     11 O4         55.0937    3.7595   27.3619 O.co2       1 GG9      -0.5666
     12 O5         56.7066    4.2567   25.7813 O.co2       1 GG9      -0.5666
     13 P1         54.6125    9.4862   30.0072 P.3         1 GG9       0.2044
     14 O6         54.2549   10.6531   29.2329 O.co2       1 GG9      -0.5536
     15 O7         55.9600    9.6262   30.5155 O.co2       1 GG9      -0.5536
     16 O8         53.7722    9.4041   31.1764 O.co2       1 GG9      -0.5536
     17 C8         59.3209    9.3231   28.0564 C.3         1 GG9       0.3058
     18 C9         58.8391   10.6005   28.8347 C.3         1 GG9       0.3020
     19 C10        60.5016    9.5881   27.1852 C.2         1 GG9       0.1145
     20 O9         61.0277   10.8209   26.9732 O.co2       1 GG9      -0.5422
     21 O10        61.1039    8.5762   26.5182 O.co2       1 GG9      -0.5422
     22 P2         59.4542    7.9430   30.3515 P.3         1 GG9       0.2040
     23 O11        60.3272    8.6151   31.2610 O.co2       1 GG9      -0.5537
     24 O12        59.9540    6.5886   30.5827 O.co2       1 GG9      -0.5537
     25 O13        58.0902    7.8680   30.8159 O.co2       1 GG9      -0.5537
     26 O14        59.7412    8.1697   28.8378 O.3         1 GG9      -0.2326
     27 F1         59.5379   10.7520   30.0129 F           1 GG9      -0.2037
     28 F2         58.9489   11.7459   28.0663 F           1 GG9      -0.2037
     29 H1         53.8711    6.1286   27.5502 H           1 GG9       0.0595
     30 H2         53.6781    8.4522   27.3489 H           1 GG9       0.0831
     31 H3         55.7173    8.7391   26.0290 H           1 GG9       0.0674
     32 H4         57.0764    8.2103   28.6845 H           1 GG9       0.0643
     33 H5         57.4934    6.7651   26.0606 H           1 GG9       0.0411
     34 H6         57.8899    6.2166   27.6941 H           1 GG9       0.0411
     35 H7         54.9090   10.5839   27.0267 H           1 GG9       0.2103
     36 H8         57.7855   10.4862   29.0965 H           1 GG9       0.1071
@<TRIPOS>BOND
     1     1     2   2
     2     6     1   1
     3     1     7   1
     4     3     2   1
     5     4     3   1
     6     3     8   1
     7     5     4   1
     8     4     9   1
     9     5     6   1
    10    10     5   1
    11     7    11  ar
    12     7    12  ar
    13     8    13   1
    14    17    10   1
    15    13    14  ar
    16    13    15  ar
    17    13    16  ar
    18    17    18   1
    19    17    19   1
    20    26    17   1
    21    18    27   1
    22    18    28   1
    23    19    20  ar
    24    19    21  ar
    25    22    23  ar
    26    22    24  ar
    27    22    25  ar
    28    22    26   1
    29     2    29   1
    30     3    30   1
    31     4    31   1
    32     5    32   1
    33     6    33   1
    34     6    34   1
    35     9    35   1
    36    18    36   1
@<TRIPOS>SUBSTRUCTURE
     1  GG9      1

