@<TRIPOS>MOLECULE
2pq9_ligand_051
    36    36
SMALL
GAST_HUCK
****
This file was generated by PARSER (from files_GN.cpp)

@<TRIPOS>ATOM
      1 C1         57.2440   11.8957   28.2726 C.2         1 GG9      -0.0206
      2 C2         58.5200   11.6348   27.9714 C.2         1 GG9      -0.0423
      3 C3         59.1700   10.3835   28.3748 C.3         1 GG9       0.1415
      4 C4         58.8925   10.1899   29.8872 C.3         1 GG9       0.1216
      5 C5         57.3818   10.4246   30.2931 C.3         1 GG9       0.0983
      6 C6         56.5324   10.8787   29.0798 C.3         1 GG9       0.0036
      7 C7         56.6265   13.0771   27.8517 C.2         1 GG9       0.0477
      8 O1         60.5911   10.3561   28.0677 O.3         1 GG9      -0.2592
      9 O2         59.7752   11.0597   30.6443 O.3         1 GG9      -0.3840
     10 O3         56.9466    9.1788   30.9050 O.3         1 GG9      -0.3316
     11 O4         57.3474   14.1705   27.5385 O.co2       1 GG9      -0.5666
     12 O5         55.3599   13.0626   27.3554 O.co2       1 GG9      -0.5666
     13 P1         61.0509    9.9702   26.6294 P.3         1 GG9       0.2044
     14 O6         60.4300   10.7302   25.5729 O.co2       1 GG9      -0.5536
     15 O7         60.8498    8.5688   26.3611 O.co2       1 GG9      -0.5536
     16 O8         62.4750   10.1637   26.4865 O.co2       1 GG9      -0.5536
     17 C8         55.8300    9.0226   31.8140 C.3         1 GG9       0.3058
     18 C9         54.4821    9.0287   31.0105 C.3         1 GG9       0.3020
     19 C10        55.8867   10.0402   32.8930 C.2         1 GG9       0.1145
     20 O9         56.9909   10.8298   33.0078 O.co2       1 GG9      -0.5422
     21 O10        54.9723   10.0656   33.8755 O.co2       1 GG9      -0.5422
     22 P2         57.1191    7.0698   33.0696 P.3         1 GG9       0.2040
     23 O11        57.8024    6.4225   31.9815 O.co2       1 GG9      -0.5537
     24 O12        56.7726    6.0582   34.0356 O.co2       1 GG9      -0.5537
     25 O13        58.0901    8.0000   33.6535 O.co2       1 GG9      -0.5537
     26 O14        55.8445    7.7254   32.4972 O.3         1 GG9      -0.2326
     27 F1         53.8077   10.2025   31.1366 F           1 GG9      -0.2037
     28 F2         54.6990    8.7966   29.6705 F           1 GG9      -0.2037
     29 H1         59.0718   12.3042   27.4787 H           1 GG9       0.0595
     30 H2         58.6625    9.5556   27.8551 H           1 GG9       0.0831
     31 H3         59.1879    9.1708   30.1463 H           1 GG9       0.0674
     32 H4         57.3012   11.3050   31.0336 H           1 GG9       0.0643
     33 H5         56.3555    9.9865   28.4986 H           1 GG9       0.0411
     34 H6         55.5675   11.2759   29.4220 H           1 GG9       0.0411
     35 H7         59.5067   10.9348   31.5790 H           1 GG9       0.2103
     36 H8         53.8044    8.2630   31.3529 H           1 GG9       0.1071
@<TRIPOS>BOND
     1     1     2   2
     2     6     1   1
     3     1     7   1
     4     3     2   1
     5     4     3   1
     6     3     8   1
     7     5     4   1
     8     4     9   1
     9     5     6   1
    10    10     5   1
    11     7    11  ar
    12     7    12  ar
    13     8    13   1
    14    17    10   1
    15    13    14  ar
    16    13    15  ar
    17    13    16  ar
    18    17    18   1
    19    17    19   1
    20    26    17   1
    21    18    27   1
    22    18    28   1
    23    19    20  ar
    24    19    21  ar
    25    22    23  ar
    26    22    24  ar
    27    22    25  ar
    28    22    26   1
    29     2    29   1
    30     3    30   1
    31     4    31   1
    32     5    32   1
    33     6    33   1
    34     6    34   1
    35     9    35   1
    36    18    36   1
@<TRIPOS>SUBSTRUCTURE
     1  GG9      1

