@<TRIPOS>MOLECULE
2pq9_ligand_016
    36    36
SMALL
GAST_HUCK
****
This file was generated by PARSER (from files_GN.cpp)

@<TRIPOS>ATOM
      1 C1         57.6290   11.3335   30.1098 C.2         1 GG9      -0.0206
      2 C2         56.3358   10.9557   30.0561 C.2         1 GG9      -0.0423
      3 C3         55.8349   10.0472   29.0198 C.3         1 GG9       0.1415
      4 C4         56.8369    8.8547   28.9250 C.3         1 GG9       0.1216
      5 C5         58.3126    9.3278   28.6795 C.3         1 GG9       0.0983
      6 C6         58.5204   10.8298   29.0482 C.3         1 GG9       0.0036
      7 C7         58.1293   12.1394   31.1377 C.2         1 GG9       0.0477
      8 O1         55.7493   10.6752   27.7136 O.3         1 GG9      -0.2592
      9 O2         56.4068    7.9338   27.9189 O.3         1 GG9      -0.3840
     10 O3         59.1795    8.4054   29.3750 O.3         1 GG9      -0.3316
     11 O4         59.2330   12.9112   30.9757 O.co2       1 GG9      -0.5666
     12 O5         57.5550   12.1838   32.3608 O.co2       1 GG9      -0.5666
     13 P1         54.5275   11.5880   27.3748 P.3         1 GG9       0.2044
     14 O6         54.8986   12.9780   27.2420 O.co2       1 GG9      -0.5536
     15 O7         53.3881   11.4266   28.2399 O.co2       1 GG9      -0.5536
     16 O8         54.0856   11.1907   26.0605 O.co2       1 GG9      -0.5536
     17 C8         60.6152    8.4745   29.4936 C.3         1 GG9       0.3058
     18 C9         61.1768    7.0211   29.3131 C.3         1 GG9       0.3020
     19 C10        60.8646    8.9377   30.8920 C.2         1 GG9       0.1145
     20 O9         60.7352    8.0828   31.9278 O.co2       1 GG9      -0.5422
     21 O10        60.8542   10.2600   31.2067 O.co2       1 GG9      -0.5422
     22 P2         61.0350    9.6789   27.1221 P.3         1 GG9       0.2040
     23 O11        60.4973   11.0129   26.9754 O.co2       1 GG9      -0.5537
     24 O12        60.1514    8.7537   26.4630 O.co2       1 GG9      -0.5537
     25 O13        62.2753    9.7008   26.3930 O.co2       1 GG9      -0.5537
     26 O14        61.3223    9.4063   28.6333 O.3         1 GG9      -0.2326
     27 F1         62.5563    7.0005   29.3754 F           1 GG9      -0.2037
     28 F2         60.6915    6.1275   30.2500 F           1 GG9      -0.2037
     29 H1         55.6975   11.2278   30.7719 H           1 GG9       0.0595
     30 H2         54.8563    9.6430   29.3098 H           1 GG9       0.0831
     31 H3         56.7749    8.3171   29.8830 H           1 GG9       0.0674
     32 H4         58.5000    9.2217   27.6158 H           1 GG9       0.0643
     33 H5         59.5584   11.0004   29.3058 H           1 GG9       0.0411
     34 H6         58.3216   11.4443   28.1630 H           1 GG9       0.0411
     35 H7         57.0695    7.2156   27.9327 H           1 GG9       0.2103
     36 H8         60.8886    6.6254   28.3331 H           1 GG9       0.1071
@<TRIPOS>BOND
     1     1     2   2
     2     6     1   1
     3     1     7   1
     4     3     2   1
     5     4     3   1
     6     3     8   1
     7     5     4   1
     8     4     9   1
     9     5     6   1
    10    10     5   1
    11     7    11  ar
    12     7    12  ar
    13     8    13   1
    14    17    10   1
    15    13    14  ar
    16    13    15  ar
    17    13    16  ar
    18    17    18   1
    19    17    19   1
    20    26    17   1
    21    18    27   1
    22    18    28   1
    23    19    20  ar
    24    19    21  ar
    25    22    23  ar
    26    22    24  ar
    27    22    25  ar
    28    22    26   1
    29     2    29   1
    30     3    30   1
    31     4    31   1
    32     5    32   1
    33     6    33   1
    34     6    34   1
    35     9    35   1
    36    18    36   1
@<TRIPOS>SUBSTRUCTURE
     1  GG9      1

