@<TRIPOS>MOLECULE
2pq9_ligand_043
    36    36
SMALL
GAST_HUCK
****
This file was generated by PARSER (from files_GN.cpp)

@<TRIPOS>ATOM
      1 C1         57.9457   11.9197   28.0367 C.2         1 GG9      -0.0206
      2 C2         59.1872   11.4655   27.7752 C.2         1 GG9      -0.0423
      3 C3         59.6355   10.1392   28.2149 C.3         1 GG9       0.1415
      4 C4         58.4968    9.1279   27.8737 C.3         1 GG9       0.1216
      5 C5         57.1716    9.5367   28.6016 C.3         1 GG9       0.0983
      6 C6         57.0865   11.0816   28.8862 C.3         1 GG9       0.0036
      7 C7         57.4692   13.0995   27.4603 C.2         1 GG9       0.0477
      8 O1         59.9323   10.2546   29.6332 O.3         1 GG9      -0.2592
      9 O2         58.9209    7.7975   28.1632 O.3         1 GG9      -0.3840
     10 O3         56.0107    9.2035   27.8206 O.3         1 GG9      -0.3316
     11 O4         56.1799   13.2396   27.0726 O.co2       1 GG9      -0.5666
     12 O5         58.2405   14.2013   27.3249 O.co2       1 GG9      -0.5666
     13 P1         60.6771    9.1171   30.3981 P.3         1 GG9       0.2044
     14 O6         61.9065    8.7237   29.7542 O.co2       1 GG9      -0.5536
     15 O7         59.8739    7.9568   30.6949 O.co2       1 GG9      -0.5536
     16 O8         61.0308    9.6372   31.6997 O.co2       1 GG9      -0.5536
     17 C8         55.0090    8.2346   28.2217 C.3         1 GG9       0.3058
     18 C9         55.4525    6.8233   27.7282 C.3         1 GG9       0.3020
     19 C10        53.8005    8.6180   27.4610 C.2         1 GG9       0.1145
     20 O9         52.5791    8.4472   28.0086 O.co2       1 GG9      -0.5422
     21 O10        53.8391    8.8005   26.1258 O.co2       1 GG9      -0.5422
     22 P2         54.6314    9.3390   30.6299 P.3         1 GG9       0.2040
     23 O11        53.3510    9.3796   31.3037 O.co2       1 GG9      -0.5537
     24 O12        54.7770   10.6327   30.0012 O.co2       1 GG9      -0.5537
     25 O13        55.6101    9.1735   31.6795 O.co2       1 GG9      -0.5537
     26 O14        54.6943    8.1295   29.6423 O.3         1 GG9      -0.2326
     27 F1         56.5718    6.3912   28.3857 F           1 GG9      -0.2037
     28 F2         54.4886    5.8649   27.9403 F           1 GG9      -0.2037
     29 H1         59.7766   11.9589   27.1419 H           1 GG9       0.0595
     30 H2         60.5403    9.8622   27.6618 H           1 GG9       0.0831
     31 H3         58.3244    9.1358   26.7973 H           1 GG9       0.0674
     32 H4         57.1678    9.0125   29.5600 H           1 GG9       0.0643
     33 H5         56.0434   11.4186   28.8446 H           1 GG9       0.0411
     34 H6         57.3893   11.2748   29.9182 H           1 GG9       0.0411
     35 H7         58.2854    7.2053   27.7142 H           1 GG9       0.2103
     36 H8         55.6843    6.8442   26.6628 H           1 GG9       0.1071
@<TRIPOS>BOND
     1     1     2   2
     2     6     1   1
     3     1     7   1
     4     3     2   1
     5     4     3   1
     6     3     8   1
     7     5     4   1
     8     4     9   1
     9     5     6   1
    10    10     5   1
    11     7    11  ar
    12     7    12  ar
    13     8    13   1
    14    17    10   1
    15    13    14  ar
    16    13    15  ar
    17    13    16  ar
    18    17    18   1
    19    17    19   1
    20    26    17   1
    21    18    27   1
    22    18    28   1
    23    19    20  ar
    24    19    21  ar
    25    22    23  ar
    26    22    24  ar
    27    22    25  ar
    28    22    26   1
    29     2    29   1
    30     3    30   1
    31     4    31   1
    32     5    32   1
    33     6    33   1
    34     6    34   1
    35     9    35   1
    36    18    36   1
@<TRIPOS>SUBSTRUCTURE
     1  GG9      1

