@<TRIPOS>MOLECULE
2pq9_ligand_006
    36    36
SMALL
GAST_HUCK
****
This file was generated by PARSER (from files_GN.cpp)

@<TRIPOS>ATOM
      1 C1         56.6836    7.3572   27.8809 C.2         1 GG9      -0.0206
      2 C2         55.9188    8.4450   28.1067 C.2         1 GG9      -0.0423
      3 C3         56.4591    9.6812   28.6721 C.3         1 GG9       0.1415
      4 C4         57.3143    9.3207   29.9170 C.3         1 GG9       0.1216
      5 C5         58.4168    8.2710   29.5576 C.3         1 GG9       0.0983
      6 C6         58.0885    7.3989   28.2945 C.3         1 GG9       0.0036
      7 C7         56.1774    6.2540   27.1917 C.2         1 GG9       0.0477
      8 O1         55.4265   10.6118   29.0543 O.3         1 GG9      -0.2592
      9 O2         56.4808    8.8285   30.9648 O.3         1 GG9      -0.3840
     10 O3         59.6163    9.0150   29.2852 O.3         1 GG9      -0.3316
     11 O4         56.9820    5.4207   26.4904 O.co2       1 GG9      -0.5666
     12 O5         54.8577    5.9463   27.1919 O.co2       1 GG9      -0.5666
     13 P1         54.5741   11.2598   27.9170 P.3         1 GG9       0.2044
     14 O6         54.5484   10.5158   26.6798 O.co2       1 GG9      -0.5536
     15 O7         54.9787   12.6203   27.6687 O.co2       1 GG9      -0.5536
     16 O8         53.2161   11.2632   28.3993 O.co2       1 GG9      -0.5536
     17 C8         60.9693    8.5996   29.5704 C.3         1 GG9       0.3058
     18 C9         61.3410    7.0868   29.4197 C.3         1 GG9       0.3020
     19 C10        61.2595    9.0837   30.9438 C.2         1 GG9       0.1145
     20 O9         61.0655   10.3987   31.2161 O.co2       1 GG9      -0.5422
     21 O10        61.2422    8.2488   32.0115 O.co2       1 GG9      -0.5422
     22 P2         61.5079    9.7554   27.2432 P.3         1 GG9       0.2040
     23 O11        62.1052   11.0474   27.0099 O.co2       1 GG9      -0.5537
     24 O12        60.1195    9.9492   26.9145 O.co2       1 GG9      -0.5537
     25 O13        62.0926    8.8735   26.2662 O.co2       1 GG9      -0.5537
     26 O14        61.8488    9.3977   28.7326 O.3         1 GG9      -0.2326
     27 F1         60.4610    6.2182   30.0196 F           1 GG9      -0.2037
     28 F2         61.4244    6.7003   28.1127 F           1 GG9      -0.2037
     29 H1         54.9510    8.4201   27.8883 H           1 GG9       0.0595
     30 H2         57.1479   10.1294   27.9501 H           1 GG9       0.0831
     31 H3         57.7788   10.2346   30.3073 H           1 GG9       0.0674
     32 H4         58.5713    7.6355   30.4346 H           1 GG9       0.0643
     33 H5         58.6210    7.8100   27.4338 H           1 GG9       0.0411
     34 H6         58.4875    6.3981   28.4669 H           1 GG9       0.0411
     35 H7         56.0986    9.6225   31.3948 H           1 GG9       0.2103
     36 H8         62.3195    6.9122   29.8727 H           1 GG9       0.1071
@<TRIPOS>BOND
     1     1     2   2
     2     6     1   1
     3     1     7   1
     4     3     2   1
     5     4     3   1
     6     3     8   1
     7     5     4   1
     8     4     9   1
     9     5     6   1
    10    10     5   1
    11     7    11  ar
    12     7    12  ar
    13     8    13   1
    14    17    10   1
    15    13    14  ar
    16    13    15  ar
    17    13    16  ar
    18    17    18   1
    19    17    19   1
    20    26    17   1
    21    18    27   1
    22    18    28   1
    23    19    20  ar
    24    19    21  ar
    25    22    23  ar
    26    22    24  ar
    27    22    25  ar
    28    22    26   1
    29     2    29   1
    30     3    30   1
    31     4    31   1
    32     5    32   1
    33     6    33   1
    34     6    34   1
    35     9    35   1
    36    18    36   1
@<TRIPOS>SUBSTRUCTURE
     1  GG9      1

