@<TRIPOS>MOLECULE
2pq9_ligand_019
    36    36
SMALL
GAST_HUCK
****
This file was generated by PARSER (from files_GN.cpp)

@<TRIPOS>ATOM
      1 C1         58.6189   11.6035   30.5552 C.2         1 GG9      -0.0206
      2 C2         59.4179   10.5136   30.4422 C.2         1 GG9      -0.0423
      3 C3         59.0578    9.3941   29.5707 C.3         1 GG9       0.1415
      4 C4         57.5408    9.0756   29.7685 C.3         1 GG9       0.1216
      5 C5         56.6640   10.3380   29.4558 C.3         1 GG9       0.0983
      6 C6         57.4383   11.6914   29.6784 C.3         1 GG9       0.0036
      7 C7         58.9408   12.6279   31.4537 C.2         1 GG9       0.0477
      8 O1         59.8336    8.1971   29.8209 O.3         1 GG9      -0.2592
      9 O2         57.2720    8.6073   31.0821 O.3         1 GG9      -0.3840
     10 O3         56.2918   10.2451   28.0629 O.3         1 GG9      -0.3316
     11 O4         58.0744   13.6273   31.7642 O.co2       1 GG9      -0.5666
     12 O5         60.1275   12.6756   32.1088 O.co2       1 GG9      -0.5666
     13 P1         61.3817    8.2826   29.6854 P.3         1 GG9       0.2044
     14 O6         61.8640    7.7823   28.4141 O.co2       1 GG9      -0.5536
     15 O7         61.9543    7.4556   30.7168 O.co2       1 GG9      -0.5536
     16 O8         61.8701    9.6206   29.9009 O.co2       1 GG9      -0.5536
     17 C8         55.0348    9.7869   27.4972 C.3         1 GG9       0.3058
     18 C9         54.3574   11.0472   26.8751 C.3         1 GG9       0.3020
     19 C10        54.0436    9.0864   28.3724 C.2         1 GG9       0.1145
     20 O9         52.8593    8.7113   27.8380 O.co2       1 GG9      -0.5422
     21 O10        54.4047    8.3822   29.4698 O.co2       1 GG9      -0.5422
     22 P2         56.3464    7.6807   26.6181 P.3         1 GG9       0.2040
     23 O11        55.9295    6.7397   27.6326 O.co2       1 GG9      -0.5537
     24 O12        57.7018    8.1062   26.8502 O.co2       1 GG9      -0.5537
     25 O13        56.3763    6.9358   25.3816 O.co2       1 GG9      -0.5537
     26 O14        55.3695    8.8869   26.4055 O.3         1 GG9      -0.2326
     27 F1         55.2371   12.0959   26.6659 F           1 GG9      -0.2037
     28 F2         53.7824   10.7891   25.6533 F           1 GG9      -0.2037
     29 H1         60.2115   10.3939   31.0307 H           1 GG9       0.0595
     30 H2         59.1899    9.7157   28.5290 H           1 GG9       0.0831
     31 H3         57.2753    8.2517   29.0939 H           1 GG9       0.0674
     32 H4         55.7707   10.3445   30.0826 H           1 GG9       0.0643
     33 H5         57.8110   12.0504   28.7174 H           1 GG9       0.0411
     34 H6         56.7231   12.4368   30.0228 H           1 GG9       0.0411
     35 H7         57.8340    9.1417   31.6868 H           1 GG9       0.2103
     36 H8         53.5755   11.4268   27.5443 H           1 GG9       0.1071
@<TRIPOS>BOND
     1     1     2   2
     2     6     1   1
     3     1     7   1
     4     3     2   1
     5     4     3   1
     6     3     8   1
     7     5     4   1
     8     4     9   1
     9     5     6   1
    10    10     5   1
    11     7    11  ar
    12     7    12  ar
    13     8    13   1
    14    17    10   1
    15    13    14  ar
    16    13    15  ar
    17    13    16  ar
    18    17    18   1
    19    17    19   1
    20    26    17   1
    21    18    27   1
    22    18    28   1
    23    19    20  ar
    24    19    21  ar
    25    22    23  ar
    26    22    24  ar
    27    22    25  ar
    28    22    26   1
    29     2    29   1
    30     3    30   1
    31     4    31   1
    32     5    32   1
    33     6    33   1
    34     6    34   1
    35     9    35   1
    36    18    36   1
@<TRIPOS>SUBSTRUCTURE
     1  GG9      1

