@<TRIPOS>MOLECULE
2pq9_ligand_010
    36    36
SMALL
GAST_HUCK
****
This file was generated by PARSER (from files_GN.cpp)

@<TRIPOS>ATOM
      1 C1         56.7587   11.5325   28.3892 C.2         1 GG9      -0.0206
      2 C2         58.0481   11.2101   28.6702 C.2         1 GG9      -0.0423
      3 C3         58.4656   10.0230   29.4142 C.3         1 GG9       0.1415
      4 C4         57.3299    9.5062   30.3485 C.3         1 GG9       0.1216
      5 C5         56.0374    9.3174   29.5178 C.3         1 GG9       0.0983
      6 C6         55.6504   10.6912   28.8849 C.3         1 GG9       0.0036
      7 C7         56.4535   12.7180   27.7013 C.2         1 GG9       0.0477
      8 O1         59.6425   10.3373   30.1932 O.3         1 GG9      -0.2592
      9 O2         57.1020   10.3865   31.4550 O.3         1 GG9      -0.3840
     10 O3         56.3666    8.2368   28.5990 O.3         1 GG9      -0.3316
     11 O4         57.2785   13.7958   27.6946 O.co2       1 GG9      -0.5666
     12 O5         55.2503   12.9135   27.1040 O.co2       1 GG9      -0.5666
     13 P1         60.5826    9.1597   30.6083 P.3         1 GG9       0.2044
     14 O6         61.6539    8.9664   29.6581 O.co2       1 GG9      -0.5536
     15 O7         59.9542    7.9027   30.9346 O.co2       1 GG9      -0.5536
     16 O8         61.1954    9.6049   31.8359 O.co2       1 GG9      -0.5536
     17 C8         55.5404    7.5356   27.6409 C.3         1 GG9       0.3058
     18 C9         55.9454    8.0879   26.2311 C.3         1 GG9       0.3020
     19 C10        54.0928    7.6215   27.9754 C.2         1 GG9       0.1145
     20 O9         53.6427    7.1909   29.1696 O.co2       1 GG9      -0.5422
     21 O10        53.2184    8.2933   27.1939 O.co2       1 GG9      -0.5422
     22 P2         55.9838    5.0741   26.7522 P.3         1 GG9       0.2040
     23 O11        57.0890    5.3516   25.8594 O.co2       1 GG9      -0.5537
     24 O12        54.7838    5.0213   25.9509 O.co2       1 GG9      -0.5537
     25 O13        56.2336    3.7766   27.3313 O.co2       1 GG9      -0.5537
     26 O14        55.9805    6.1655   27.8631 O.3         1 GG9      -0.2326
     27 F1         55.3667    9.3041   25.9591 F           1 GG9      -0.2037
     28 F2         57.3162    8.2190   26.1295 F           1 GG9      -0.2037
     29 H1         58.7795   11.7689   28.2920 H           1 GG9       0.0595
     30 H2         58.6890    9.2732   28.6501 H           1 GG9       0.0831
     31 H3         57.6191    8.5461   30.7783 H           1 GG9       0.0674
     32 H4         55.2351    8.9903   30.1858 H           1 GG9       0.0643
     33 H5         54.9194   10.5152   28.1002 H           1 GG9       0.0411
     34 H6         55.1295   11.2771   29.6459 H           1 GG9       0.0411
     35 H7         57.1286   11.2951   31.0840 H           1 GG9       0.2103
     36 H8         55.6175    7.3978   25.4518 H           1 GG9       0.1071
@<TRIPOS>BOND
     1     1     2   2
     2     6     1   1
     3     1     7   1
     4     3     2   1
     5     4     3   1
     6     3     8   1
     7     5     4   1
     8     4     9   1
     9     5     6   1
    10    10     5   1
    11     7    11  ar
    12     7    12  ar
    13     8    13   1
    14    17    10   1
    15    13    14  ar
    16    13    15  ar
    17    13    16  ar
    18    17    18   1
    19    17    19   1
    20    26    17   1
    21    18    27   1
    22    18    28   1
    23    19    20  ar
    24    19    21  ar
    25    22    23  ar
    26    22    24  ar
    27    22    25  ar
    28    22    26   1
    29     2    29   1
    30     3    30   1
    31     4    31   1
    32     5    32   1
    33     6    33   1
    34     6    34   1
    35     9    35   1
    36    18    36   1
@<TRIPOS>SUBSTRUCTURE
     1  GG9      1

