@<TRIPOS>MOLECULE
2pq9_ligand_029
    36    36
SMALL
GAST_HUCK
****
This file was generated by PARSER (from files_GN.cpp)

@<TRIPOS>ATOM
      1 C1         59.5814    8.8188   29.6800 C.2         1 GG9      -0.0206
      2 C2         59.0694    7.6414   29.2459 C.2         1 GG9      -0.0423
      3 C3         58.1234    7.5840   28.1225 C.3         1 GG9       0.1415
      4 C4         57.0318    8.6976   28.2935 C.3         1 GG9       0.1216
      5 C5         57.6047   10.0663   28.8136 C.3         1 GG9       0.0983
      6 C6         59.1566   10.0227   28.9592 C.3         1 GG9       0.0036
      7 C7         60.4088    8.9247   30.8042 C.2         1 GG9       0.0477
      8 O1         57.6035    6.2365   28.0017 O.3         1 GG9      -0.2592
      9 O2         56.0309    8.2010   29.1842 O.3         1 GG9      -0.3840
     10 O3         57.3567   11.1458   27.8914 O.3         1 GG9      -0.3316
     11 O4         60.6061    7.8959   31.6562 O.co2       1 GG9      -0.5666
     12 O5         61.0513   10.0674   31.1349 O.co2       1 GG9      -0.5666
     13 P1         56.5298    5.9078   26.9151 P.3         1 GG9       0.2044
     14 O6         55.9538    4.6221   27.2290 O.co2       1 GG9      -0.5536
     15 O7         57.1068    5.8023   25.5978 O.co2       1 GG9      -0.5536
     16 O8         55.4428    6.8580   26.8819 O.co2       1 GG9      -0.5536
     17 C8         56.4094   12.2109   28.1244 C.3         1 GG9       0.3058
     18 C9         54.9437   11.6792   28.0170 C.3         1 GG9       0.3020
     19 C10        56.6515   13.1632   27.0071 C.2         1 GG9       0.1145
     20 O9         57.5823   14.1368   27.1116 O.co2       1 GG9      -0.5422
     21 O10        56.2213   12.8788   25.7542 O.co2       1 GG9      -0.5422
     22 P2         57.5983   12.7198   30.4852 P.3         1 GG9       0.2040
     23 O11        57.5175   13.8177   31.4166 O.co2       1 GG9      -0.5537
     24 O12        58.9532   12.6520   30.0083 O.co2       1 GG9      -0.5537
     25 O13        57.3385   11.5556   31.2882 O.co2       1 GG9      -0.5537
     26 O14        56.4913   12.9050   29.4011 O.3         1 GG9      -0.2326
     27 F1         54.7754   10.7610   27.0063 F           1 GG9      -0.2037
     28 F2         54.5529   11.0924   29.1952 F           1 GG9      -0.2037
     29 H1         59.2969    6.7960   29.7190 H           1 GG9       0.0595
     30 H2         58.6999    7.8202   27.2212 H           1 GG9       0.0831
     31 H3         56.5531    8.8511   27.3241 H           1 GG9       0.0674
     32 H4         57.1796   10.2829   29.8014 H           1 GG9       0.0643
     33 H5         59.6195   10.0191   27.9651 H           1 GG9       0.0411
     34 H6         59.4828   10.9381   29.4469 H           1 GG9       0.0411
     35 H7         55.2851    8.8326   29.1197 H           1 GG9       0.2103
     36 H8         54.2536   12.5024   27.8332 H           1 GG9       0.1071
@<TRIPOS>BOND
     1     1     2   2
     2     6     1   1
     3     1     7   1
     4     3     2   1
     5     4     3   1
     6     3     8   1
     7     5     4   1
     8     4     9   1
     9     5     6   1
    10    10     5   1
    11     7    11  ar
    12     7    12  ar
    13     8    13   1
    14    17    10   1
    15    13    14  ar
    16    13    15  ar
    17    13    16  ar
    18    17    18   1
    19    17    19   1
    20    26    17   1
    21    18    27   1
    22    18    28   1
    23    19    20  ar
    24    19    21  ar
    25    22    23  ar
    26    22    24  ar
    27    22    25  ar
    28    22    26   1
    29     2    29   1
    30     3    30   1
    31     4    31   1
    32     5    32   1
    33     6    33   1
    34     6    34   1
    35     9    35   1
    36    18    36   1
@<TRIPOS>SUBSTRUCTURE
     1  GG9      1

