@<TRIPOS>MOLECULE
2pq9_ligand_022
    36    36
SMALL
GAST_HUCK
****
This file was generated by PARSER (from files_GN.cpp)

@<TRIPOS>ATOM
      1 C1         56.1598   10.7594   28.9973 C.2         1 GG9      -0.0206
      2 C2         56.7530   11.9738   28.9488 C.2         1 GG9      -0.0423
      3 C3         57.9006   12.3261   29.7759 C.3         1 GG9       0.1415
      4 C4         58.8680   11.1179   29.8127 C.3         1 GG9       0.1216
      5 C5         58.1927    9.7555   30.1715 C.3         1 GG9       0.0983
      6 C6         56.6336    9.7815   29.9838 C.3         1 GG9       0.0036
      7 C7         55.1127   10.4439   28.1404 C.2         1 GG9       0.0477
      8 O1         57.4229   12.7034   31.0878 O.3         1 GG9      -0.2592
      9 O2         59.9587   11.3920   30.6887 O.3         1 GG9      -0.3840
     10 O3         58.7958    8.7177   29.3735 O.3         1 GG9      -0.3316
     11 O4         55.1662   10.7521   26.8210 O.co2       1 GG9      -0.5666
     12 O5         53.9706    9.8709   28.5950 O.co2       1 GG9      -0.5666
     13 P1         58.3483   13.5176   32.0520 P.3         1 GG9       0.2044
     14 O6         58.4334   12.8022   33.3004 O.co2       1 GG9      -0.5536
     15 O7         57.7406   14.7924   32.3500 O.co2       1 GG9      -0.5536
     16 O8         59.6921   13.7676   31.5912 O.co2       1 GG9      -0.5536
     17 C8         60.0971    8.1173   29.6743 C.3         1 GG9       0.3058
     18 C9         59.7661    6.6200   29.8852 C.3         1 GG9       0.3020
     19 C10        60.8478    8.6502   30.8600 C.2         1 GG9       0.1145
     20 O9         60.9029    7.9764   32.0346 O.co2       1 GG9      -0.5422
     21 O10        61.4250    9.8791   30.8557 O.co2       1 GG9      -0.5422
     22 P2         61.1962    9.3074   27.5975 P.3         1 GG9       0.2040
     23 O11        61.9857    8.8459   26.4805 O.co2       1 GG9      -0.5537
     24 O12        61.9985   10.3284   28.2401 O.co2       1 GG9      -0.5537
     25 O13        60.0008    9.8628   27.0068 O.co2       1 GG9      -0.5537
     26 O14        60.9668    8.0796   28.5125 O.3         1 GG9      -0.2326
     27 F1         59.3253    6.0374   28.7135 F           1 GG9      -0.2037
     28 F2         60.8580    5.8940   30.3161 F           1 GG9      -0.2037
     29 H1         56.4353   12.6521   28.2859 H           1 GG9       0.0595
     30 H2         58.4028   13.1683   29.2880 H           1 GG9       0.0831
     31 H3         59.2934   11.0447   28.8094 H           1 GG9       0.0674
     32 H4         58.3433    9.5188   31.2255 H           1 GG9       0.0643
     33 H5         56.2855    8.7714   29.7492 H           1 GG9       0.0411
     34 H6         56.1711   10.0585   30.9376 H           1 GG9       0.0411
     35 H7         59.6534   11.0973   31.5705 H           1 GG9       0.2103
     36 H8         58.9662    6.5059   30.6267 H           1 GG9       0.1071
@<TRIPOS>BOND
     1     1     2   2
     2     6     1   1
     3     1     7   1
     4     3     2   1
     5     4     3   1
     6     3     8   1
     7     5     4   1
     8     4     9   1
     9     5     6   1
    10    10     5   1
    11     7    11  ar
    12     7    12  ar
    13     8    13   1
    14    17    10   1
    15    13    14  ar
    16    13    15  ar
    17    13    16  ar
    18    17    18   1
    19    17    19   1
    20    26    17   1
    21    18    27   1
    22    18    28   1
    23    19    20  ar
    24    19    21  ar
    25    22    23  ar
    26    22    24  ar
    27    22    25  ar
    28    22    26   1
    29     2    29   1
    30     3    30   1
    31     4    31   1
    32     5    32   1
    33     6    33   1
    34     6    34   1
    35     9    35   1
    36    18    36   1
@<TRIPOS>SUBSTRUCTURE
     1  GG9      1

