@<TRIPOS>MOLECULE
2pq9_ligand_002
    36    36
SMALL
GAST_HUCK
****
This file was generated by PARSER (from files_GN.cpp)

@<TRIPOS>ATOM
      1 C1         55.6015    9.7888   28.1495 C.2         1 GG9      -0.0206
      2 C2         55.1428    8.6881   27.5089 C.2         1 GG9      -0.0423
      3 C3         55.8048    7.3922   27.6368 C.3         1 GG9       0.1415
      4 C4         57.3628    7.5757   27.5850 C.3         1 GG9       0.1216
      5 C5         57.8946    8.8233   28.3826 C.3         1 GG9       0.0983
      6 C6         56.7540    9.6485   29.0402 C.3         1 GG9       0.0036
      7 C7         55.0218   11.0380   27.9390 C.2         1 GG9       0.0477
      8 O1         55.2826    6.5092   26.6128 O.3         1 GG9      -0.2592
      9 O2         57.6989    7.6657   26.1970 O.3         1 GG9      -0.3840
     10 O3         58.7895    8.4470   29.4607 O.3         1 GG9      -0.3316
     11 O4         53.7624   11.3027   28.3697 O.co2       1 GG9      -0.5666
     12 O5         55.6888   12.0168   27.2780 O.co2       1 GG9      -0.5666
     13 P1         55.7327    5.0136   26.5949 P.3         1 GG9       0.2044
     14 O6         55.2631    4.4166   25.3737 O.co2       1 GG9      -0.5536
     15 O7         55.1353    4.2566   27.6660 O.co2       1 GG9      -0.5536
     16 O8         57.1634    4.8436   26.6009 O.co2       1 GG9      -0.5536
     17 C8         60.2337    8.5975   29.4316 C.3         1 GG9       0.3058
     18 C9         60.8822    7.2005   29.1449 C.3         1 GG9       0.3020
     19 C10        60.5906    9.0109   30.8247 C.2         1 GG9       0.1145
     20 O9         60.8094    8.0974   31.8007 O.co2       1 GG9      -0.5422
     21 O10        60.9157   10.2849   31.1444 O.co2       1 GG9      -0.5422
     22 P2         60.7135    9.7740   27.0519 P.3         1 GG9       0.2040
     23 O11        60.0406    8.7028   26.3698 O.co2       1 GG9      -0.5537
     24 O12        62.0855    9.8152   26.6175 O.co2       1 GG9      -0.5537
     25 O13        60.1293   11.0192   26.6304 O.co2       1 GG9      -0.5537
     26 O14        60.6623    9.7215   28.6078 O.3         1 GG9      -0.2326
     27 F1         62.2192    7.3213   28.8243 F           1 GG9      -0.2037
     28 F2         60.7713    6.3350   30.2186 F           1 GG9      -0.2037
     29 H1         54.3827    8.7735   26.8683 H           1 GG9       0.0595
     30 H2         55.5271    7.0167   28.6214 H           1 GG9       0.0831
     31 H3         57.8462    6.6795   27.9822 H           1 GG9       0.0674
     32 H4         58.3678    9.5048   27.6753 H           1 GG9       0.0643
     33 H5         56.4061    9.1287   29.9350 H           1 GG9       0.0411
     34 H6         57.1561   10.6125   29.3643 H           1 GG9       0.0411
     35 H7         58.4469    8.2877   26.1341 H           1 GG9       0.2103
     36 H8         60.3835    6.7091   28.3087 H           1 GG9       0.1071
@<TRIPOS>BOND
     1     1     2   2
     2     6     1   1
     3     1     7   1
     4     3     2   1
     5     4     3   1
     6     3     8   1
     7     5     4   1
     8     4     9   1
     9     5     6   1
    10    10     5   1
    11     7    11  ar
    12     7    12  ar
    13     8    13   1
    14    17    10   1
    15    13    14  ar
    16    13    15  ar
    17    13    16  ar
    18    17    18   1
    19    17    19   1
    20    26    17   1
    21    18    27   1
    22    18    28   1
    23    19    20  ar
    24    19    21  ar
    25    22    23  ar
    26    22    24  ar
    27    22    25  ar
    28    22    26   1
    29     2    29   1
    30     3    30   1
    31     4    31   1
    32     5    32   1
    33     6    33   1
    34     6    34   1
    35     9    35   1
    36    18    36   1
@<TRIPOS>SUBSTRUCTURE
     1  GG9      1

