@<TRIPOS>MOLECULE
2pq9_ligand_018
    36    36
SMALL
GAST_HUCK
****
This file was generated by PARSER (from files_GN.cpp)

@<TRIPOS>ATOM
      1 C1         56.8654   12.3359   28.3911 C.2         1 GG9      -0.0206
      2 C2         58.0730   12.1428   28.9706 C.2         1 GG9      -0.0423
      3 C3         58.2747   11.1785   30.0523 C.3         1 GG9       0.1415
      4 C4         57.5277    9.8579   29.7019 C.3         1 GG9       0.1216
      5 C5         56.1181   10.0352   29.0381 C.3         1 GG9       0.0983
      6 C6         55.7406   11.5281   28.8668 C.3         1 GG9       0.0036
      7 C7         56.6974   13.2801   27.3849 C.2         1 GG9       0.0477
      8 O1         57.8045   11.7321   31.3024 O.3         1 GG9      -0.2592
      9 O2         57.4114    8.9670   30.8126 O.3         1 GG9      -0.3840
     10 O3         56.0619    9.4183   27.7249 O.3         1 GG9      -0.3316
     11 O4         55.6425   13.2318   26.5383 O.co2       1 GG9      -0.5666
     12 O5         57.6218   14.2275   27.1279 O.co2       1 GG9      -0.5666
     13 P1         58.6333   12.9010   31.9420 P.3         1 GG9       0.2044
     14 O6         57.7238   13.9644   32.2964 O.co2       1 GG9      -0.5536
     15 O7         59.6541   13.4609   31.0924 O.co2       1 GG9      -0.5536
     16 O8         59.2525   12.4431   33.1606 O.co2       1 GG9      -0.5536
     17 C8         55.9190    7.9797   27.6000 C.3         1 GG9       0.3058
     18 C9         56.2195    7.6178   26.1060 C.3         1 GG9       0.3020
     19 C10        54.4952    7.6131   27.8950 C.2         1 GG9       0.1145
     20 O9         54.0597    7.4539   29.1632 O.co2       1 GG9      -0.5422
     21 O10        53.5178    7.9062   27.0056 O.co2       1 GG9      -0.5422
     22 P2         58.2800    7.0272   28.4721 P.3         1 GG9       0.2040
     23 O11        58.8382    7.0461   29.7994 O.co2       1 GG9      -0.5537
     24 O12        59.0570    7.9636   27.6969 O.co2       1 GG9      -0.5537
     25 O13        58.4853    5.6995   27.9547 O.co2       1 GG9      -0.5537
     26 O14        56.7437    7.2899   28.5819 O.3         1 GG9      -0.2326
     27 F1         57.5117    7.8916   25.7398 F           1 GG9      -0.2037
     28 F2         55.9692    6.2901   25.8472 F           1 GG9      -0.2037
     29 H1         58.8773   12.6261   28.6397 H           1 GG9       0.0595
     30 H2         59.3421   10.9148   30.1230 H           1 GG9       0.0831
     31 H3         58.1720    9.3676   28.9856 H           1 GG9       0.0674
     32 H4         55.3519    9.6112   29.6927 H           1 GG9       0.0643
     33 H5         54.8509   11.5967   28.2346 H           1 GG9       0.0411
     34 H6         55.4510   11.9051   29.8471 H           1 GG9       0.0411
     35 H7         58.1560    9.1935   31.4037 H           1 GG9       0.2103
     36 H8         55.6060    8.2178   25.4388 H           1 GG9       0.1071
@<TRIPOS>BOND
     1     1     2   2
     2     6     1   1
     3     1     7   1
     4     3     2   1
     5     4     3   1
     6     3     8   1
     7     5     4   1
     8     4     9   1
     9     5     6   1
    10    10     5   1
    11     7    11  ar
    12     7    12  ar
    13     8    13   1
    14    17    10   1
    15    13    14  ar
    16    13    15  ar
    17    13    16  ar
    18    17    18   1
    19    17    19   1
    20    26    17   1
    21    18    27   1
    22    18    28   1
    23    19    20  ar
    24    19    21  ar
    25    22    23  ar
    26    22    24  ar
    27    22    25  ar
    28    22    26   1
    29     2    29   1
    30     3    30   1
    31     4    31   1
    32     5    32   1
    33     6    33   1
    34     6    34   1
    35     9    35   1
    36    18    36   1
@<TRIPOS>SUBSTRUCTURE
     1  GG9      1

