@<TRIPOS>MOLECULE
2pq9_ligand_020
    36    36
SMALL
GAST_HUCK
****
This file was generated by PARSER (from files_GN.cpp)

@<TRIPOS>ATOM
      1 C1         59.6990    8.6963   30.3547 C.2         1 GG9      -0.0206
      2 C2         60.2529    9.4931   29.4207 C.2         1 GG9      -0.0423
      3 C3         59.4325   10.1111   28.3794 C.3         1 GG9       0.1415
      4 C4         58.3224    9.1199   27.8995 C.3         1 GG9       0.1216
      5 C5         57.5824    8.3561   29.0661 C.3         1 GG9       0.0983
      6 C6         58.2499    8.5920   30.4494 C.3         1 GG9       0.0036
      7 C7         60.5057    7.8539   31.0802 C.2         1 GG9       0.0477
      8 O1         60.0970   10.7578   27.2620 O.3         1 GG9      -0.2592
      9 O2         58.8707    8.1738   26.9880 O.3         1 GG9      -0.3840
     10 O3         56.1627    8.5745   29.2524 O.3         1 GG9      -0.3316
     11 O4         61.2508    8.3827   32.0703 O.co2       1 GG9      -0.5666
     12 O5         60.9594    6.7361   30.4713 O.co2       1 GG9      -0.5666
     13 P1         61.4884   10.3436   26.6883 P.3         1 GG9       0.2044
     14 O6         62.4921   10.4572   27.7230 O.co2       1 GG9      -0.5536
     15 O7         61.8937   11.3207   25.7017 O.co2       1 GG9      -0.5536
     16 O8         61.5894    9.0235   26.1232 O.co2       1 GG9      -0.5536
     17 C8         55.1893    8.8116   28.1940 C.3         1 GG9       0.3058
     18 C9         55.0158   10.3766   28.0750 C.3         1 GG9       0.3020
     19 C10        53.8601    8.2938   28.6144 C.2         1 GG9       0.1145
     20 O9         52.7674    8.5380   27.8631 O.co2       1 GG9      -0.5422
     21 O10        53.7459    7.3689   29.5862 O.co2       1 GG9      -0.5422
     22 P2         55.8896    6.7239   26.6842 P.3         1 GG9       0.2040
     23 O11        54.8109    5.8258   26.9926 O.co2       1 GG9      -0.5537
     24 O12        57.1127    6.2222   27.3415 O.co2       1 GG9      -0.5537
     25 O13        56.1807    6.5640   25.2865 O.co2       1 GG9      -0.5537
     26 O14        55.5752    8.2318   26.9074 O.3         1 GG9      -0.2326
     27 F1         56.1062   11.1265   28.4494 F           1 GG9      -0.2037
     28 F2         54.6943   10.7455   26.7885 F           1 GG9      -0.2037
     29 H1         61.2406    9.5696   29.3795 H           1 GG9       0.0595
     30 H2         58.9150   10.9322   28.8795 H           1 GG9       0.0831
     31 H3         57.6320    9.7022   27.3135 H           1 GG9       0.0674
     32 H4         57.7080    7.2879   28.9061 H           1 GG9       0.0643
     33 H5         57.8659    9.5250   30.8603 H           1 GG9       0.0411
     34 H6         57.9548    7.7901   31.1284 H           1 GG9       0.0411
     35 H7         58.3061    8.2485   26.1923 H           1 GG9       0.2103
     36 H8         54.2167   10.7406   28.7270 H           1 GG9       0.1071
@<TRIPOS>BOND
     1     1     2   2
     2     6     1   1
     3     1     7   1
     4     3     2   1
     5     4     3   1
     6     3     8   1
     7     5     4   1
     8     4     9   1
     9     5     6   1
    10    10     5   1
    11     7    11  ar
    12     7    12  ar
    13     8    13   1
    14    17    10   1
    15    13    14  ar
    16    13    15  ar
    17    13    16  ar
    18    17    18   1
    19    17    19   1
    20    26    17   1
    21    18    27   1
    22    18    28   1
    23    19    20  ar
    24    19    21  ar
    25    22    23  ar
    26    22    24  ar
    27    22    25  ar
    28    22    26   1
    29     2    29   1
    30     3    30   1
    31     4    31   1
    32     5    32   1
    33     6    33   1
    34     6    34   1
    35     9    35   1
    36    18    36   1
@<TRIPOS>SUBSTRUCTURE
     1  GG9      1

