@<TRIPOS>MOLECULE
2pq9_ligand_037
    36    36
SMALL
GAST_HUCK
****
This file was generated by PARSER (from files_GN.cpp)

@<TRIPOS>ATOM
      1 C1         57.8000   12.4379   28.0743 C.2         1 GG9      -0.0206
      2 C2         58.9672   11.8164   27.8031 C.2         1 GG9      -0.0423
      3 C3         59.2062   10.4112   28.1498 C.3         1 GG9       0.1415
      4 C4         58.6928   10.1652   29.5878 C.3         1 GG9       0.1216
      5 C5         57.1692   10.5066   29.6826 C.3         1 GG9       0.0983
      6 C6         56.7411   11.6808   28.7417 C.3         1 GG9       0.0036
      7 C7         57.4858   13.6562   27.4779 C.2         1 GG9       0.0477
      8 O1         60.5835    9.9751   28.0620 O.3         1 GG9      -0.2592
      9 O2         59.4690   10.9604   30.4860 O.3         1 GG9      -0.3840
     10 O3         56.4147    9.2933   29.3917 O.3         1 GG9      -0.3316
     11 O4         58.4249   14.5725   27.1536 O.co2       1 GG9      -0.5666
     12 O5         56.2418   13.9206   27.0199 O.co2       1 GG9      -0.5666
     13 P1         61.2750   10.0023   26.6625 P.3         1 GG9       0.2044
     14 O6         60.3557    9.9944   25.5542 O.co2       1 GG9      -0.5536
     15 O7         62.0485    8.7965   26.5249 O.co2       1 GG9      -0.5536
     16 O8         62.1649   11.1262   26.5267 O.co2       1 GG9      -0.5536
     17 C8         54.9639    9.1876   29.5062 C.3         1 GG9       0.3058
     18 C9         54.1731   10.1622   28.5636 C.3         1 GG9       0.3020
     19 C10        54.5551    9.3208   30.9312 C.2         1 GG9       0.1145
     20 O9         55.3894    8.8617   31.8919 O.co2       1 GG9      -0.5422
     21 O10        53.2544    9.4518   31.2872 O.co2       1 GG9      -0.5422
     22 P2         54.5449    7.2017   27.7913 P.3         1 GG9       0.2040
     23 O11        55.6815    7.5546   26.9811 O.co2       1 GG9      -0.5537
     24 O12        53.3173    7.6131   27.1594 O.co2       1 GG9      -0.5537
     25 O13        54.5013    5.7680   27.8995 O.co2       1 GG9      -0.5537
     26 O14        54.5919    7.8116   29.2294 O.3         1 GG9      -0.2326
     27 F1         54.3850   11.4943   28.8029 F           1 GG9      -0.2037
     28 F2         54.4864    9.9740   27.2361 F           1 GG9      -0.2037
     29 H1         59.6785   12.2988   27.3062 H           1 GG9       0.0595
     30 H2         58.5853    9.7739   27.5120 H           1 GG9       0.0831
     31 H3         58.8562    9.1181   29.8592 H           1 GG9       0.0674
     32 H4         56.9880   10.8112   30.7175 H           1 GG9       0.0643
     33 H5         56.2080   11.2573   27.8961 H           1 GG9       0.0411
     34 H6         56.0309   12.3160   29.3050 H           1 GG9       0.0411
     35 H7         59.0328   10.8596   31.3538 H           1 GG9       0.2103
     36 H8         53.1047    9.9843   28.6945 H           1 GG9       0.1071
@<TRIPOS>BOND
     1     1     2   2
     2     6     1   1
     3     1     7   1
     4     3     2   1
     5     4     3   1
     6     3     8   1
     7     5     4   1
     8     4     9   1
     9     5     6   1
    10    10     5   1
    11     7    11  ar
    12     7    12  ar
    13     8    13   1
    14    17    10   1
    15    13    14  ar
    16    13    15  ar
    17    13    16  ar
    18    17    18   1
    19    17    19   1
    20    26    17   1
    21    18    27   1
    22    18    28   1
    23    19    20  ar
    24    19    21  ar
    25    22    23  ar
    26    22    24  ar
    27    22    25  ar
    28    22    26   1
    29     2    29   1
    30     3    30   1
    31     4    31   1
    32     5    32   1
    33     6    33   1
    34     6    34   1
    35     9    35   1
    36    18    36   1
@<TRIPOS>SUBSTRUCTURE
     1  GG9      1

