@<TRIPOS>MOLECULE
2pq9_ligand_041
    36    36
SMALL
GAST_HUCK
****
This file was generated by PARSER (from files_GN.cpp)

@<TRIPOS>ATOM
      1 C1         56.9912    8.6199   28.0535 C.2         1 GG9      -0.0206
      2 C2         55.9315    8.7512   27.2300 C.2         1 GG9      -0.0423
      3 C3         54.6326    9.3015   27.6444 C.3         1 GG9       0.1415
      4 C4         54.5491    9.8020   29.1362 C.3         1 GG9       0.1216
      5 C5         55.9381   10.3005   29.6162 C.3         1 GG9       0.0983
      6 C6         56.9600    9.1371   29.4171 C.3         1 GG9       0.0036
      7 C7         58.1403    7.9788   27.6243 C.2         1 GG9       0.0477
      8 O1         53.4763    8.5085   27.2563 O.3         1 GG9      -0.2592
      9 O2         54.0674    8.8109   30.0391 O.3         1 GG9      -0.3840
     10 O3         56.1607   11.5171   28.8681 O.3         1 GG9      -0.3316
     11 O4         59.0153    8.6054   26.7916 O.co2       1 GG9      -0.5666
     12 O5         58.4712    6.7398   28.0837 O.co2       1 GG9      -0.5666
     13 P1         53.3027    7.0149   27.6926 P.3         1 GG9       0.2044
     14 O6         53.7071    6.7360   29.0427 O.co2       1 GG9      -0.5536
     15 O7         54.0290    6.1297   26.8222 O.co2       1 GG9      -0.5536
     16 O8         51.9067    6.6828   27.5738 O.co2       1 GG9      -0.5536
     17 C8         57.4120   12.1974   28.6276 C.3         1 GG9       0.3058
     18 C9         58.1373   12.5396   29.9759 C.3         1 GG9       0.3020
     19 C10        56.9971   13.4441   27.9245 C.2         1 GG9       0.1145
     20 O9         55.7666   13.5399   27.3569 O.co2       1 GG9      -0.5422
     21 O10        57.9138   14.3020   27.4347 O.co2       1 GG9      -0.5422
     22 P2         59.6229   11.5099   27.3002 P.3         1 GG9       0.2040
     23 O11        60.1961   12.8163   27.5171 O.co2       1 GG9      -0.5537
     24 O12        59.8145   11.1971   25.9071 O.co2       1 GG9      -0.5537
     25 O13        60.3711   10.5131   28.0253 O.co2       1 GG9      -0.5537
     26 O14        58.1091   11.3838   27.6497 O.3         1 GG9      -0.2326
     27 F1         57.2911   12.4463   31.0590 F           1 GG9      -0.2037
     28 F2         59.2120   11.7210   30.2380 F           1 GG9      -0.2037
     29 H1         56.0046    8.4453   26.2874 H           1 GG9       0.0595
     30 H2         54.5316   10.2104   27.0435 H           1 GG9       0.0831
     31 H3         53.8205   10.6175   29.1879 H           1 GG9       0.0674
     32 H4         55.8893   10.5609   30.6771 H           1 GG9       0.0643
     33 H5         57.9483    9.4897   29.7092 H           1 GG9       0.0411
     34 H6         56.7114    8.3164   30.0938 H           1 GG9       0.0411
     35 H7         53.9416    9.2654   30.8978 H           1 GG9       0.2103
     36 H8         58.5065   13.5699   29.9709 H           1 GG9       0.1071
@<TRIPOS>BOND
     1     1     2   2
     2     6     1   1
     3     1     7   1
     4     3     2   1
     5     4     3   1
     6     3     8   1
     7     5     4   1
     8     4     9   1
     9     5     6   1
    10    10     5   1
    11     7    11  ar
    12     7    12  ar
    13     8    13   1
    14    17    10   1
    15    13    14  ar
    16    13    15  ar
    17    13    16  ar
    18    17    18   1
    19    17    19   1
    20    26    17   1
    21    18    27   1
    22    18    28   1
    23    19    20  ar
    24    19    21  ar
    25    22    23  ar
    26    22    24  ar
    27    22    25  ar
    28    22    26   1
    29     2    29   1
    30     3    30   1
    31     4    31   1
    32     5    32   1
    33     6    33   1
    34     6    34   1
    35     9    35   1
    36    18    36   1
@<TRIPOS>SUBSTRUCTURE
     1  GG9      1

