@<TRIPOS>MOLECULE
2pq9_ligand_044
    36    36
SMALL
GAST_HUCK
****
This file was generated by PARSER (from files_GN.cpp)

@<TRIPOS>ATOM
      1 C1         59.6440   10.5177   27.1039 C.2         1 GG9      -0.0206
      2 C2         59.1937   11.7795   27.3082 C.2         1 GG9      -0.0423
      3 C3         58.1296   12.0907   28.2683 C.3         1 GG9       0.1415
      4 C4         58.3540   11.2579   29.5632 C.3         1 GG9       0.1216
      5 C5         58.6512    9.7416   29.2698 C.3         1 GG9       0.0983
      6 C6         58.8912    9.4365   27.7609 C.3         1 GG9       0.0036
      7 C7         60.7936   10.2465   26.3504 C.2         1 GG9       0.0477
      8 O1         56.7994   11.7844   27.7897 O.3         1 GG9      -0.2592
      9 O2         57.2632   11.3988   30.4724 O.3         1 GG9      -0.3840
     10 O3         59.8084    9.4610   30.0710 O.3         1 GG9      -0.3316
     11 O4         61.2605    8.9821   26.1618 O.co2       1 GG9      -0.5666
     12 O5         61.4940   11.2232   25.7346 O.co2       1 GG9      -0.5666
     13 P1         56.0248   12.8583   26.9831 P.3         1 GG9       0.2044
     14 O6         56.0202   12.5836   25.5643 O.co2       1 GG9      -0.5536
     15 O7         56.4767   14.2090   27.1976 O.co2       1 GG9      -0.5536
     16 O8         54.6500   12.8107   27.4292 O.co2       1 GG9      -0.5536
     17 C8         60.4553    8.1977   30.2854 C.3         1 GG9       0.3058
     18 C9         59.4530    6.9927   30.3223 C.3         1 GG9       0.3020
     19 C10        61.0781    8.5269   31.5823 C.2         1 GG9       0.1145
     20 O9         61.7138    9.7130   31.7495 O.co2       1 GG9      -0.5422
     21 O10        60.8376    7.7953   32.6826 O.co2       1 GG9      -0.5422
     22 P2         62.1974    6.7681   28.9591 P.3         1 GG9       0.2040
     23 O11        61.2532    5.8285   28.3992 O.co2       1 GG9      -0.5537
     24 O12        62.8435    6.1732   30.1066 O.co2       1 GG9      -0.5537
     25 O13        63.1957    7.0192   27.9543 O.co2       1 GG9      -0.5537
     26 O14        61.4792    8.1117   29.2690 O.3         1 GG9      -0.2326
     27 F1         58.4479    7.1805   31.2440 F           1 GG9      -0.2037
     28 F2         58.8602    6.7737   29.1054 F           1 GG9      -0.2037
     29 H1         59.6769   12.5468   26.9030 H           1 GG9       0.0595
     30 H2         58.2010   13.1425   28.5622 H           1 GG9       0.0831
     31 H3         59.2097   11.7200   30.0695 H           1 GG9       0.0674
     32 H4         57.8080    9.1372   29.6153 H           1 GG9       0.0643
     33 H5         59.3636    8.4593   27.6436 H           1 GG9       0.0411
     34 H6         57.9145    9.3492   27.2710 H           1 GG9       0.0411
     35 H7         57.6202   11.0513   31.3184 H           1 GG9       0.2103
     36 H8         59.9808    6.0829   30.5897 H           1 GG9       0.1071
@<TRIPOS>BOND
     1     1     2   2
     2     6     1   1
     3     1     7   1
     4     3     2   1
     5     4     3   1
     6     3     8   1
     7     5     4   1
     8     4     9   1
     9     5     6   1
    10    10     5   1
    11     7    11  ar
    12     7    12  ar
    13     8    13   1
    14    17    10   1
    15    13    14  ar
    16    13    15  ar
    17    13    16  ar
    18    17    18   1
    19    17    19   1
    20    26    17   1
    21    18    27   1
    22    18    28   1
    23    19    20  ar
    24    19    21  ar
    25    22    23  ar
    26    22    24  ar
    27    22    25  ar
    28    22    26   1
    29     2    29   1
    30     3    30   1
    31     4    31   1
    32     5    32   1
    33     6    33   1
    34     6    34   1
    35     9    35   1
    36    18    36   1
@<TRIPOS>SUBSTRUCTURE
     1  GG9      1

