@<TRIPOS>MOLECULE
2pq9_ligand_042
    36    36
SMALL
GAST_HUCK
****
This file was generated by PARSER (from files_GN.cpp)

@<TRIPOS>ATOM
      1 C1         58.7927    8.4549   27.2195 C.2         1 GG9      -0.0206
      2 C2         58.1891    7.8526   26.1695 C.2         1 GG9      -0.0423
      3 C3         56.8662    7.2327   26.2872 C.3         1 GG9       0.1415
      4 C4         55.9220    8.1647   27.1171 C.3         1 GG9       0.1216
      5 C5         56.6241    8.9112   28.3130 C.3         1 GG9       0.0983
      6 C6         58.0880    8.4267   28.4998 C.3         1 GG9       0.0036
      7 C7         59.9874    9.1559   27.0657 C.2         1 GG9       0.0477
      8 O1         56.9489    5.9516   26.9671 O.3         1 GG9      -0.2592
      9 O2         54.7739    7.4423   27.5601 O.3         1 GG9      -0.3840
     10 O3         56.6451   10.3259   28.0077 O.3         1 GG9      -0.3316
     11 O4         61.0954    8.5602   26.5653 O.co2       1 GG9      -0.5666
     12 O5         60.1223   10.4541   27.4228 O.co2       1 GG9      -0.5666
     13 P1         56.7248    4.6335   26.1627 P.3         1 GG9       0.2044
     14 O6         57.9422    4.0644   25.6376 O.co2       1 GG9      -0.5536
     15 O7         55.7301    4.7529   25.1266 O.co2       1 GG9      -0.5536
     16 O8         56.1948    3.6818   27.1076 O.co2       1 GG9      -0.5536
     17 C8         55.6839   11.2986   28.4938 C.3         1 GG9       0.3058
     18 C9         54.2710   10.6625   28.7702 C.3         1 GG9       0.3020
     19 C10        55.5216   12.3202   27.4180 C.2         1 GG9       0.1145
     20 O9         54.5209   13.2341   27.4705 O.co2       1 GG9      -0.5422
     21 O10        56.4595   12.5244   26.4648 O.co2       1 GG9      -0.5422
     22 P2         57.7104   12.2267   29.9124 P.3         1 GG9       0.2040
     23 O11        58.5046   11.0249   29.9226 O.co2       1 GG9      -0.5537
     24 O12        57.9143   12.8287   31.2053 O.co2       1 GG9      -0.5537
     25 O13        58.2721   13.1225   28.9327 O.co2       1 GG9      -0.5537
     26 O14        56.1853   11.9196   29.7124 O.3         1 GG9      -0.2326
     27 F1         54.1202   10.2568   30.0756 F           1 GG9      -0.2037
     28 F2         53.1991   11.4807   28.5226 F           1 GG9      -0.2037
     29 H1         58.5877    7.9302   25.2626 H           1 GG9       0.0595
     30 H2         56.4181    7.1456   25.2877 H           1 GG9       0.0831
     31 H3         55.5300    8.9106   26.4183 H           1 GG9       0.0674
     32 H4         56.1143    8.7073   29.2558 H           1 GG9       0.0643
     33 H5         58.5818    9.0100   29.2684 H           1 GG9       0.0411
     34 H6         58.0788    7.3949   28.8678 H           1 GG9       0.0411
     35 H7         55.0847    6.8964   28.3087 H           1 GG9       0.2103
     36 H8         54.1336    9.7962   28.1274 H           1 GG9       0.1071
@<TRIPOS>BOND
     1     1     2   2
     2     6     1   1
     3     1     7   1
     4     3     2   1
     5     4     3   1
     6     3     8   1
     7     5     4   1
     8     4     9   1
     9     5     6   1
    10    10     5   1
    11     7    11  ar
    12     7    12  ar
    13     8    13   1
    14    17    10   1
    15    13    14  ar
    16    13    15  ar
    17    13    16  ar
    18    17    18   1
    19    17    19   1
    20    26    17   1
    21    18    27   1
    22    18    28   1
    23    19    20  ar
    24    19    21  ar
    25    22    23  ar
    26    22    24  ar
    27    22    25  ar
    28    22    26   1
    29     2    29   1
    30     3    30   1
    31     4    31   1
    32     5    32   1
    33     6    33   1
    34     6    34   1
    35     9    35   1
    36    18    36   1
@<TRIPOS>SUBSTRUCTURE
     1  GG9      1

