@<TRIPOS>MOLECULE
2pq9_ligand_027
    36    36
SMALL
GAST_HUCK
****
This file was generated by PARSER (from files_GN.cpp)

@<TRIPOS>ATOM
      1 C1         59.7337    8.6546   27.3970 C.2         1 GG9      -0.0206
      2 C2         60.5251    7.8052   28.0848 C.2         1 GG9      -0.0423
      3 C3         60.0795    7.0421   29.2426 C.3         1 GG9       0.1415
      4 C4         58.6430    7.3961   29.7290 C.3         1 GG9       0.1216
      5 C5         57.6738    7.6420   28.5396 C.3         1 GG9       0.0983
      6 C6         58.2821    8.7265   27.5955 C.3         1 GG9       0.0036
      7 C7         60.3266    9.4836   26.4760 C.2         1 GG9       0.0477
      8 O1         61.0079    7.0343   30.3567 O.3         1 GG9      -0.2592
      9 O2         58.6529    8.5744   30.5341 O.3         1 GG9      -0.3840
     10 O3         57.3611    6.4044   27.8439 O.3         1 GG9      -0.3316
     11 O4         60.3306    9.0799   25.1900 O.co2       1 GG9      -0.5666
     12 O5         60.4430   10.8108   26.7333 O.co2       1 GG9      -0.5666
     13 P1         61.9203    8.2490   30.7167 P.3         1 GG9       0.2044
     14 O6         61.6688    9.5111   30.0613 O.co2       1 GG9      -0.5536
     15 O7         63.2744    7.8451   30.4078 O.co2       1 GG9      -0.5536
     16 O8         61.8627    8.4784   32.1403 O.co2       1 GG9      -0.5536
     17 C8         56.1560    6.1721   27.0391 C.3         1 GG9       0.3058
     18 C9         55.3906    4.9239   27.5916 C.3         1 GG9       0.3020
     19 C10        56.6247    5.8096   25.6748 C.2         1 GG9       0.1145
     20 O9         55.8034    5.9960   24.6161 O.co2       1 GG9      -0.5422
     21 O10        57.5057    4.8018   25.4979 O.co2       1 GG9      -0.5422
     22 P2         54.5417    8.2683   27.7422 P.3         1 GG9       0.2040
     23 O11        54.1675    7.8190   29.0568 O.co2       1 GG9      -0.5537
     24 O12        53.3147    8.6807   27.1077 O.co2       1 GG9      -0.5537
     25 O13        55.2882    9.4970   27.8255 O.co2       1 GG9      -0.5537
     26 O14        55.2366    7.2722   26.7703 O.3         1 GG9      -0.2326
     27 F1         56.1955    3.8165   27.7249 F           1 GG9      -0.2037
     28 F2         54.8742    5.1544   28.8339 F           1 GG9      -0.2037
     29 H1         61.4935    7.7260   27.8433 H           1 GG9       0.0595
     30 H2         60.0465    6.0054   28.9019 H           1 GG9       0.0831
     31 H3         58.2666    6.5814   30.3446 H           1 GG9       0.0674
     32 H4         56.7594    8.0136   28.9982 H           1 GG9       0.0643
     33 H5         57.7874    8.6445   26.6258 H           1 GG9       0.0411
     34 H6         58.0488    9.7113   28.0038 H           1 GG9       0.0411
     35 H7         58.4396    8.2914   31.4450 H           1 GG9       0.2103
     36 H8         54.5588    4.6639   26.9336 H           1 GG9       0.1071
@<TRIPOS>BOND
     1     1     2   2
     2     6     1   1
     3     1     7   1
     4     3     2   1
     5     4     3   1
     6     3     8   1
     7     5     4   1
     8     4     9   1
     9     5     6   1
    10    10     5   1
    11     7    11  ar
    12     7    12  ar
    13     8    13   1
    14    17    10   1
    15    13    14  ar
    16    13    15  ar
    17    13    16  ar
    18    17    18   1
    19    17    19   1
    20    26    17   1
    21    18    27   1
    22    18    28   1
    23    19    20  ar
    24    19    21  ar
    25    22    23  ar
    26    22    24  ar
    27    22    25  ar
    28    22    26   1
    29     2    29   1
    30     3    30   1
    31     4    31   1
    32     5    32   1
    33     6    33   1
    34     6    34   1
    35     9    35   1
    36    18    36   1
@<TRIPOS>SUBSTRUCTURE
     1  GG9      1

