@<TRIPOS>MOLECULE
2pq9_ligand_046
    36    36
SMALL
GAST_HUCK
****
This file was generated by PARSER (from files_GN.cpp)

@<TRIPOS>ATOM
      1 C1         58.7864    9.6344   30.1461 C.2         1 GG9      -0.0206
      2 C2         57.7890    8.8031   29.7647 C.2         1 GG9      -0.0423
      3 C3         56.5757    9.3017   29.1135 C.3         1 GG9       0.1415
      4 C4         56.0638   10.5592   29.9048 C.3         1 GG9       0.1216
      5 C5         57.1987   11.6410   30.0238 C.3         1 GG9       0.0983
      6 C6         58.6410   11.0609   29.7996 C.3         1 GG9       0.0036
      7 C7         59.9214    9.1543   30.8058 C.2         1 GG9       0.0477
      8 O1         55.6083    8.2323   29.0550 O.3         1 GG9      -0.2592
      9 O2         55.6342   10.1475   31.2146 O.3         1 GG9      -0.3840
     10 O3         56.9020   12.9136   29.3799 O.3         1 GG9      -0.3316
     11 O4         60.0217    7.8730   31.2359 O.co2       1 GG9      -0.5666
     12 O5         60.9286    9.9680   31.1914 O.co2       1 GG9      -0.5666
     13 P1         54.9073    7.8865   27.7094 P.3         1 GG9       0.2044
     14 O6         53.6207    8.5122   27.5526 O.co2       1 GG9      -0.5536
     15 O7         54.6711    6.4668   27.7355 O.co2       1 GG9      -0.5536
     16 O8         55.7294    8.1426   26.5535 O.co2       1 GG9      -0.5536
     17 C8         56.8182   13.3096   27.9772 C.3         1 GG9       0.3058
     18 C9         55.6896   12.6071   27.1520 C.3         1 GG9       0.3020
     19 C10        58.1492   13.1148   27.3439 C.2         1 GG9       0.1145
     20 O9         58.4398   12.0501   26.5505 O.co2       1 GG9      -0.5422
     21 O10        59.1916   13.8942   27.7289 O.co2       1 GG9      -0.5422
     22 P2         55.7392   15.6753   28.7152 P.3         1 GG9       0.2040
     23 O11        55.9994   17.0264   28.2876 O.co2       1 GG9      -0.5537
     24 O12        56.0661   15.6919   30.1176 O.co2       1 GG9      -0.5537
     25 O13        54.3277   15.4958   28.4850 O.co2       1 GG9      -0.5537
     26 O14        56.6671   14.7539   27.8487 O.3         1 GG9      -0.2326
     27 F1         54.4573   13.1569   27.4402 F           1 GG9      -0.2037
     28 F2         55.8928   12.7359   25.7869 F           1 GG9      -0.2037
     29 H1         57.8448    7.8297   29.9665 H           1 GG9       0.0595
     30 H2         56.8796    9.6144   28.1084 H           1 GG9       0.0831
     31 H3         55.1919   10.9869   29.4048 H           1 GG9       0.0674
     32 H4         57.2101   11.9391   31.0776 H           1 GG9       0.0643
     33 H5         58.9011   11.1160   28.7381 H           1 GG9       0.0411
     34 H6         59.3579   11.6934   30.3421 H           1 GG9       0.0411
     35 H7         54.8044    9.6410   31.0773 H           1 GG9       0.2103
     36 H8         55.6359   11.5376   27.3985 H           1 GG9       0.1071
@<TRIPOS>BOND
     1     1     2   2
     2     6     1   1
     3     1     7   1
     4     3     2   1
     5     4     3   1
     6     3     8   1
     7     5     4   1
     8     4     9   1
     9     5     6   1
    10    10     5   1
    11     7    11  ar
    12     7    12  ar
    13     8    13   1
    14    17    10   1
    15    13    14  ar
    16    13    15  ar
    17    13    16  ar
    18    17    18   1
    19    17    19   1
    20    26    17   1
    21    18    27   1
    22    18    28   1
    23    19    20  ar
    24    19    21  ar
    25    22    23  ar
    26    22    24  ar
    27    22    25  ar
    28    22    26   1
    29     2    29   1
    30     3    30   1
    31     4    31   1
    32     5    32   1
    33     6    33   1
    34     6    34   1
    35     9    35   1
    36    18    36   1
@<TRIPOS>SUBSTRUCTURE
     1  GG9      1

