@<TRIPOS>MOLECULE
2pq9_ligand_036
    36    36
SMALL
GAST_HUCK
****
This file was generated by PARSER (from files_GN.cpp)

@<TRIPOS>ATOM
      1 C1         55.6295    9.5027   28.3450 C.2         1 GG9      -0.0206
      2 C2         56.1654   10.5474   29.0257 C.2         1 GG9      -0.0423
      3 C3         57.4856   10.5513   29.6397 C.3         1 GG9       0.1415
      4 C4         57.9759    9.1103   29.9604 C.3         1 GG9       0.1216
      5 C5         57.8485    8.2025   28.7077 C.3         1 GG9       0.0983
      6 C6         56.3740    8.2438   28.1800 C.3         1 GG9       0.0036
      7 C7         54.3209    9.5839   27.8419 C.2         1 GG9       0.0477
      8 O1         57.4132   11.3092   30.8709 O.3         1 GG9      -0.2592
      9 O2         57.2392    8.5370   31.0379 O.3         1 GG9      -0.3840
     10 O3         58.7334    8.6035   27.6337 O.3         1 GG9      -0.3316
     11 O4         53.8255    8.6727   26.9788 O.co2       1 GG9      -0.5666
     12 O5         53.4515   10.5496   28.2244 O.co2       1 GG9      -0.5666
     13 P1         58.5322   12.3553   31.1826 P.3         1 GG9       0.2044
     14 O6         58.8979   13.0569   29.9756 O.co2       1 GG9      -0.5536
     15 O7         59.7001   11.8244   31.8361 O.co2       1 GG9      -0.5536
     16 O8         57.9679   13.3507   32.0647 O.co2       1 GG9      -0.5536
     17 C8         60.1874    8.5334   27.7399 C.3         1 GG9       0.3058
     18 C9         60.6946    9.5734   28.7994 C.3         1 GG9       0.3020
     19 C10        60.6999    9.0034   26.4293 C.2         1 GG9       0.1145
     20 O9         60.1906    8.5006   25.2815 O.co2       1 GG9      -0.5422
     21 O10        61.9930    9.4100   26.3735 O.co2       1 GG9      -0.5422
     22 P2         61.4572    6.4278   28.8563 P.3         1 GG9       0.2040
     23 O11        62.6760    7.1393   29.1574 O.co2       1 GG9      -0.5537
     24 O12        61.8431    5.1403   28.3334 O.co2       1 GG9      -0.5537
     25 O13        60.7039    6.1923   30.0630 O.co2       1 GG9      -0.5537
     26 O14        60.6454    7.1540   27.7380 O.3         1 GG9      -0.2326
     27 F1         59.8069   10.6372   28.8298 F           1 GG9      -0.2037
     28 F2         60.8180    9.0920   30.0750 F           1 GG9      -0.2037
     29 H1         55.6622   11.4035   29.0812 H           1 GG9       0.0595
     30 H2         58.1607   11.0091   28.9131 H           1 GG9       0.0831
     31 H3         59.0030    9.1346   30.3117 H           1 GG9       0.0674
     32 H4         58.0702    7.1659   28.9784 H           1 GG9       0.0643
     33 H5         56.3886    7.9687   27.1193 H           1 GG9       0.0411
     34 H6         55.8112    7.4685   28.7087 H           1 GG9       0.0411
     35 H7         57.8459    8.6225   31.8075 H           1 GG9       0.2103
     36 H8         61.6785   10.0134   28.5738 H           1 GG9       0.1071
@<TRIPOS>BOND
     1     1     2   2
     2     6     1   1
     3     1     7   1
     4     3     2   1
     5     4     3   1
     6     3     8   1
     7     5     4   1
     8     4     9   1
     9     5     6   1
    10    10     5   1
    11     7    11  ar
    12     7    12  ar
    13     8    13   1
    14    17    10   1
    15    13    14  ar
    16    13    15  ar
    17    13    16  ar
    18    17    18   1
    19    17    19   1
    20    26    17   1
    21    18    27   1
    22    18    28   1
    23    19    20  ar
    24    19    21  ar
    25    22    23  ar
    26    22    24  ar
    27    22    25  ar
    28    22    26   1
    29     2    29   1
    30     3    30   1
    31     4    31   1
    32     5    32   1
    33     6    33   1
    34     6    34   1
    35     9    35   1
    36    18    36   1
@<TRIPOS>SUBSTRUCTURE
     1  GG9      1

