@<TRIPOS>MOLECULE
2pq9_ligand_026
    36    36
SMALL
GAST_HUCK
****
This file was generated by PARSER (from files_GN.cpp)

@<TRIPOS>ATOM
      1 C1         59.6755    9.3177   27.7432 C.2         1 GG9      -0.0206
      2 C2         59.2246    8.0459   27.6464 C.2         1 GG9      -0.0423
      3 C3         57.8311    7.6657   27.8423 C.3         1 GG9       0.1415
      4 C4         57.2927    8.3905   29.1036 C.3         1 GG9       0.1216
      5 C5         57.4620    9.9313   28.9353 C.3         1 GG9       0.0983
      6 C6         58.9342   10.3042   28.5495 C.3         1 GG9       0.0036
      7 C7         60.9259    9.6611   27.2066 C.2         1 GG9       0.0477
      8 O1         57.7081    6.2316   27.9553 O.3         1 GG9      -0.2592
      9 O2         58.0264    7.9519   30.2633 O.3         1 GG9      -0.3840
     10 O3         56.6015   10.4903   27.9210 O.3         1 GG9      -0.3316
     11 O4         61.2863   10.9394   26.9606 O.co2       1 GG9      -0.5666
     12 O5         61.7570    8.7452   26.6707 O.co2       1 GG9      -0.5666
     13 P1         56.7061    5.4898   27.0067 P.3         1 GG9       0.2044
     14 O6         56.7908    4.0847   27.3100 O.co2       1 GG9      -0.5536
     15 O7         57.0899    5.5987   25.6230 O.co2       1 GG9      -0.5536
     16 O8         55.3204    5.8734   27.1680 O.co2       1 GG9      -0.5536
     17 C8         55.1621   10.3645   27.8050 C.3         1 GG9       0.3058
     18 C9         54.3863   10.5583   29.1426 C.3         1 GG9       0.3020
     19 C10        54.8625    9.0748   27.1511 C.2         1 GG9       0.1145
     20 O9         55.8430    8.5335   26.3973 O.co2       1 GG9      -0.5422
     21 O10        53.6169    8.6111   26.9493 O.co2       1 GG9      -0.5422
     22 P2         55.4169   12.7051   26.6171 P.3         1 GG9       0.2040
     23 O11        55.2656   13.0686   25.2290 O.co2       1 GG9      -0.5537
     24 O12        56.8321   12.7061   26.8883 O.co2       1 GG9      -0.5537
     25 O13        54.7736   13.7309   27.3981 O.co2       1 GG9      -0.5537
     26 O14        54.7371   11.3095   26.7944 O.3         1 GG9      -0.2326
     27 F1         53.0617   10.8632   28.9126 F           1 GG9      -0.2037
     28 F2         54.4225    9.4548   29.9600 F           1 GG9      -0.2037
     29 H1         59.8486    7.3320   27.3399 H           1 GG9       0.0595
     30 H2         57.3209    8.0111   26.9398 H           1 GG9       0.0831
     31 H3         56.2476    8.1327   29.2671 H           1 GG9       0.0674
     32 H4         57.2303   10.4300   29.8812 H           1 GG9       0.0643
     33 H5         58.9131   11.2675   28.0300 H           1 GG9       0.0411
     34 H6         59.5093   10.4506   29.4668 H           1 GG9       0.0411
     35 H7         58.0411    8.7161   30.8881 H           1 GG9       0.2103
     36 H8         54.8368   11.3871   29.6816 H           1 GG9       0.1071
@<TRIPOS>BOND
     1     1     2   2
     2     6     1   1
     3     1     7   1
     4     3     2   1
     5     4     3   1
     6     3     8   1
     7     5     4   1
     8     4     9   1
     9     5     6   1
    10    10     5   1
    11     7    11  ar
    12     7    12  ar
    13     8    13   1
    14    17    10   1
    15    13    14  ar
    16    13    15  ar
    17    13    16  ar
    18    17    18   1
    19    17    19   1
    20    26    17   1
    21    18    27   1
    22    18    28   1
    23    19    20  ar
    24    19    21  ar
    25    22    23  ar
    26    22    24  ar
    27    22    25  ar
    28    22    26   1
    29     2    29   1
    30     3    30   1
    31     4    31   1
    32     5    32   1
    33     6    33   1
    34     6    34   1
    35     9    35   1
    36    18    36   1
@<TRIPOS>SUBSTRUCTURE
     1  GG9      1

