@<TRIPOS>MOLECULE
2pq9_ligand_034
    36    36
SMALL
GAST_HUCK
****
This file was generated by PARSER (from files_GN.cpp)

@<TRIPOS>ATOM
      1 C1         55.7830    9.8114   31.0940 C.2         1 GG9      -0.0206
      2 C2         54.5908    9.7818   30.4613 C.2         1 GG9      -0.0423
      3 C3         54.5006    9.9517   29.0115 C.3         1 GG9       0.1415
      4 C4         55.6280    9.0587   28.3548 C.3         1 GG9       0.1216
      5 C5         57.0413    9.3821   28.9633 C.3         1 GG9       0.0983
      6 C6         56.9744   10.1653   30.3144 C.3         1 GG9       0.0036
      7 C7         55.9113    9.3677   32.3920 C.2         1 GG9       0.0477
      8 O1         54.5485   11.3880   28.7911 O.3         1 GG9      -0.2592
      9 O2         55.6073    9.1919   26.9395 O.3         1 GG9      -0.3840
     10 O3         57.8720    8.2441   29.2981 O.3         1 GG9      -0.3316
     11 O4         56.2915    8.0863   32.5918 O.co2       1 GG9      -0.5666
     12 O5         55.2861    9.9844   33.4210 O.co2       1 GG9      -0.5666
     13 P1         54.7455   11.9809   27.3613 P.3         1 GG9       0.2044
     14 O6         54.5383   13.4017   27.3261 O.co2       1 GG9      -0.5536
     15 O7         54.0091   11.3493   26.2875 O.co2       1 GG9      -0.5536
     16 O8         56.1585   11.8671   27.0700 O.co2       1 GG9      -0.5536
     17 C8         58.6447    7.4662   28.3522 C.3         1 GG9       0.3058
     18 C9         57.6625    6.5496   27.5394 C.3         1 GG9       0.3020
     19 C10        59.5486    6.5689   29.1249 C.2         1 GG9       0.1145
     20 O9         60.4779    5.8193   28.4754 O.co2       1 GG9      -0.5422
     21 O10        59.6109    6.5974   30.4784 O.co2       1 GG9      -0.5422
     22 P2         60.4237    9.3958   27.9934 P.3         1 GG9       0.2040
     23 O11        60.0328   10.6809   27.4610 O.co2       1 GG9      -0.5537
     24 O12        61.7484    9.1444   27.4711 O.co2       1 GG9      -0.5537
     25 O13        60.5180    9.5215   29.4307 O.co2       1 GG9      -0.5537
     26 O14        59.4648    8.2786   27.4595 O.3         1 GG9      -0.2326
     27 F1         56.4374    6.4103   28.2017 F           1 GG9      -0.2037
     28 F2         57.4252    7.0313   26.2807 F           1 GG9      -0.2037
     29 H1         53.7637    9.5328   30.9579 H           1 GG9       0.0595
     30 H2         53.5257    9.5836   28.6690 H           1 GG9       0.0831
     31 H3         55.4023    7.9988   28.5343 H           1 GG9       0.0674
     32 H4         57.5687   10.0265   28.2585 H           1 GG9       0.0643
     33 H5         57.8944   10.0215   30.8926 H           1 GG9       0.0411
     34 H6         56.9275   11.2365   30.1007 H           1 GG9       0.0411
     35 H7         55.7148    8.2915   26.5681 H           1 GG9       0.2103
     36 H8         58.0595    5.5498   27.3920 H           1 GG9       0.1071
@<TRIPOS>BOND
     1     1     2   2
     2     6     1   1
     3     1     7   1
     4     3     2   1
     5     4     3   1
     6     3     8   1
     7     5     4   1
     8     4     9   1
     9     5     6   1
    10    10     5   1
    11     7    11  ar
    12     7    12  ar
    13     8    13   1
    14    17    10   1
    15    13    14  ar
    16    13    15  ar
    17    13    16  ar
    18    17    18   1
    19    17    19   1
    20    26    17   1
    21    18    27   1
    22    18    28   1
    23    19    20  ar
    24    19    21  ar
    25    22    23  ar
    26    22    24  ar
    27    22    25  ar
    28    22    26   1
    29     2    29   1
    30     3    30   1
    31     4    31   1
    32     5    32   1
    33     6    33   1
    34     6    34   1
    35     9    35   1
    36    18    36   1
@<TRIPOS>SUBSTRUCTURE
     1  GG9      1

