@<TRIPOS>MOLECULE
2pq9_ligand_033
    36    36
SMALL
GAST_HUCK
****
This file was generated by PARSER (from files_GN.cpp)

@<TRIPOS>ATOM
      1 C1         58.5960   11.6539   28.1663 C.2         1 GG9      -0.0206
      2 C2         59.6388   10.9112   27.7335 C.2         1 GG9      -0.0423
      3 C3         59.9096    9.5666   28.2157 C.3         1 GG9       0.1415
      4 C4         58.5733    8.7776   28.2646 C.3         1 GG9       0.1216
      5 C5         57.5838    9.5039   29.2173 C.3         1 GG9       0.0983
      6 C6         57.4621   11.0186   28.8523 C.3         1 GG9       0.0036
      7 C7         58.5301   13.0193   27.8813 C.2         1 GG9       0.0477
      8 O1         60.5178    9.7865   29.5084 O.3         1 GG9      -0.2592
      9 O2         58.7868    7.4226   28.6568 O.3         1 GG9      -0.3840
     10 O3         56.3596    8.7558   29.1144 O.3         1 GG9      -0.3316
     11 O4         57.5532   13.5487   27.1067 O.co2       1 GG9      -0.5666
     12 O5         59.3712   13.9102   28.4583 O.co2       1 GG9      -0.5666
     13 P1         61.0061    8.5890   30.3695 P.3         1 GG9       0.2044
     14 O6         62.2291    8.0029   29.8846 O.co2       1 GG9      -0.5536
     15 O7         60.0154    7.5854   30.6593 O.co2       1 GG9      -0.5536
     16 O8         61.2978    9.1741   31.6515 O.co2       1 GG9      -0.5536
     17 C8         55.0126    9.1248   29.4982 C.3         1 GG9       0.3058
     18 C9         54.4752   10.3521   28.6921 C.3         1 GG9       0.3020
     19 C10        54.8611    9.3365   30.9617 C.2         1 GG9       0.1145
     20 O9         53.6244    9.5363   31.4716 O.co2       1 GG9      -0.5422
     21 O10        55.7458    8.7729   31.8134 O.co2       1 GG9      -0.5422
     22 P2         54.1562    7.2105   27.8823 P.3         1 GG9       0.2040
     23 O11        52.8393    7.3308   27.3153 O.co2       1 GG9      -0.5537
     24 O12        54.3862    5.8112   28.1316 O.co2       1 GG9      -0.5537
     25 O13        55.1357    7.6226   26.9093 O.co2       1 GG9      -0.5537
     26 O14        54.1925    7.9535   29.2568 O.3         1 GG9      -0.2326
     27 F1         54.9950   11.5528   29.1092 F           1 GG9      -0.2037
     28 F2         54.7438   10.2362   27.3479 F           1 GG9      -0.2037
     29 H1         60.2926   11.3004   27.0905 H           1 GG9       0.0595
     30 H2         60.6038    9.0769   27.5214 H           1 GG9       0.0831
     31 H3         58.1471    8.7441   27.2555 H           1 GG9       0.0674
     32 H4         57.9744    9.4160   30.2342 H           1 GG9       0.0643
     33 H5         56.6082   11.1341   28.1885 H           1 GG9       0.0411
     34 H6         57.2486   11.5697   29.7733 H           1 GG9       0.0411
     35 H7         57.9373    6.9635   28.4843 H           1 GG9       0.2103
     36 H8         53.3930   10.4182   28.8150 H           1 GG9       0.1071
@<TRIPOS>BOND
     1     1     2   2
     2     6     1   1
     3     1     7   1
     4     3     2   1
     5     4     3   1
     6     3     8   1
     7     5     4   1
     8     4     9   1
     9     5     6   1
    10    10     5   1
    11     7    11  ar
    12     7    12  ar
    13     8    13   1
    14    17    10   1
    15    13    14  ar
    16    13    15  ar
    17    13    16  ar
    18    17    18   1
    19    17    19   1
    20    26    17   1
    21    18    27   1
    22    18    28   1
    23    19    20  ar
    24    19    21  ar
    25    22    23  ar
    26    22    24  ar
    27    22    25  ar
    28    22    26   1
    29     2    29   1
    30     3    30   1
    31     4    31   1
    32     5    32   1
    33     6    33   1
    34     6    34   1
    35     9    35   1
    36    18    36   1
@<TRIPOS>SUBSTRUCTURE
     1  GG9      1

