@<TRIPOS>MOLECULE
2pq9_ligand_049
    36    36
SMALL
GAST_HUCK
****
This file was generated by PARSER (from files_GN.cpp)

@<TRIPOS>ATOM
      1 C1         59.1480    8.2458   29.8420 C.2         1 GG9      -0.0206
      2 C2         59.5332    9.4043   29.2786 C.2         1 GG9      -0.0423
      3 C3         59.3287    9.6596   27.8473 C.3         1 GG9       0.1415
      4 C4         57.9082    9.1809   27.4765 C.3         1 GG9       0.1216
      5 C5         57.4089    7.8241   28.0925 C.3         1 GG9       0.0983
      6 C6         58.5348    7.2193   28.9978 C.3         1 GG9       0.0036
      7 C7         59.2567    8.0446   31.2079 C.2         1 GG9       0.0477
      8 O1         60.2550    8.9376   27.0346 O.3         1 GG9      -0.2592
      9 O2         57.6590    9.1706   26.0667 O.3         1 GG9      -0.3840
     10 O3         56.1955    7.9579   28.8686 O.3         1 GG9      -0.3316
     11 O4         60.3862    8.3829   31.8694 O.co2       1 GG9      -0.5666
     12 O5         58.2674    7.4276   31.8870 O.co2       1 GG9      -0.5666
     13 P1         61.5921    9.6706   26.7444 P.3         1 GG9       0.2044
     14 O6         62.2379   10.1520   27.9369 O.co2       1 GG9      -0.5536
     15 O7         61.4362   10.7138   25.7609 O.co2       1 GG9      -0.5536
     16 O8         62.4072    8.6342   26.1712 O.co2       1 GG9      -0.5536
     17 C8         55.1166    8.9325   28.7928 C.3         1 GG9       0.3058
     18 C9         55.1554    9.6539   30.1815 C.3         1 GG9       0.3020
     19 C10        53.8648    8.1451   28.6291 C.2         1 GG9       0.1145
     20 O9         53.5972    7.0923   29.4043 O.co2       1 GG9      -0.5422
     21 O10        52.9731    8.4214   27.6337 O.co2       1 GG9      -0.5422
     22 P2         54.6324   11.2730   27.5501 P.3         1 GG9       0.2040
     23 O11        53.4176   11.4334   28.3124 O.co2       1 GG9      -0.5537
     24 O12        54.3006   11.6033   26.1909 O.co2       1 GG9      -0.5537
     25 O13        55.6214   12.2143   28.0124 O.co2       1 GG9      -0.5537
     26 O14        55.1438    9.7819   27.6016 O.3         1 GG9      -0.2326
     27 F1         55.4325    8.8270   31.2464 F           1 GG9      -0.2037
     28 F2         56.1093   10.6430   30.2255 F           1 GG9      -0.2037
     29 H1         59.8182   10.1714   29.8502 H           1 GG9       0.0595
     30 H2         59.3560   10.7421   27.6568 H           1 GG9       0.0831
     31 H3         57.3442    9.9878   27.9148 H           1 GG9       0.0674
     32 H4         57.2144    7.1005   27.3068 H           1 GG9       0.0643
     33 H5         58.1336    6.3841   29.5647 H           1 GG9       0.0411
     34 H6         59.3248    6.8004   28.3697 H           1 GG9       0.0411
     35 H7         58.0220    8.3303   25.7271 H           1 GG9       0.2103
     36 H8         54.1887   10.1064   30.4042 H           1 GG9       0.1071
@<TRIPOS>BOND
     1     1     2   2
     2     6     1   1
     3     1     7   1
     4     3     2   1
     5     4     3   1
     6     3     8   1
     7     5     4   1
     8     4     9   1
     9     5     6   1
    10    10     5   1
    11     7    11  ar
    12     7    12  ar
    13     8    13   1
    14    17    10   1
    15    13    14  ar
    16    13    15  ar
    17    13    16  ar
    18    17    18   1
    19    17    19   1
    20    26    17   1
    21    18    27   1
    22    18    28   1
    23    19    20  ar
    24    19    21  ar
    25    22    23  ar
    26    22    24  ar
    27    22    25  ar
    28    22    26   1
    29     2    29   1
    30     3    30   1
    31     4    31   1
    32     5    32   1
    33     6    33   1
    34     6    34   1
    35     9    35   1
    36    18    36   1
@<TRIPOS>SUBSTRUCTURE
     1  GG9      1

