@<TRIPOS>MOLECULE
2pq9_ligand_032
    36    36
SMALL
GAST_HUCK
****
This file was generated by PARSER (from files_GN.cpp)

@<TRIPOS>ATOM
      1 C1         58.5892   11.9828   27.9972 C.2         1 GG9      -0.0206
      2 C2         59.4690   10.9519   27.9491 C.2         1 GG9      -0.0423
      3 C3         59.5720    9.8736   28.9406 C.3         1 GG9       0.1415
      4 C4         58.6358   10.0795   30.1854 C.3         1 GG9       0.1216
      5 C5         57.3107   10.7645   29.7567 C.3         1 GG9       0.0983
      6 C6         57.7127   12.1476   29.1708 C.3         1 GG9       0.0036
      7 C7         58.4311   12.8586   26.9309 C.2         1 GG9       0.0477
      8 O1         60.9722    9.6945   29.2652 O.3         1 GG9      -0.2592
      9 O2         59.3154   10.8631   31.1694 O.3         1 GG9      -0.3840
     10 O3         56.7232    9.8925   28.7576 O.3         1 GG9      -0.3316
     11 O4         58.5546   12.4305   25.6563 O.co2       1 GG9      -0.5666
     12 O5         57.9431   14.1113   27.0925 O.co2       1 GG9      -0.5666
     13 P1         61.3824    8.7641   30.4529 P.3         1 GG9       0.2044
     14 O6         60.4406    7.7100   30.7496 O.co2       1 GG9      -0.5536
     15 O7         61.5864    9.5551   31.6409 O.co2       1 GG9      -0.5536
     16 O8         62.6459    8.1480   30.1400 O.co2       1 GG9      -0.5536
     17 C8         55.3382    9.6416   28.4290 C.3         1 GG9       0.3058
     18 C9         54.5669   10.9549   28.0423 C.3         1 GG9       0.3020
     19 C10        54.6686    8.9502   29.5730 C.2         1 GG9       0.1145
     20 O9         53.9460    7.8252   29.3779 O.co2       1 GG9      -0.5422
     21 O10        54.5345    9.5588   30.7740 O.co2       1 GG9      -0.5422
     22 P2         56.1064    7.4878   27.0532 P.3         1 GG9       0.2040
     23 O11        57.3067    7.3338   27.8311 O.co2       1 GG9      -0.5537
     24 O12        56.4747    7.3837   25.6658 O.co2       1 GG9      -0.5537
     25 O13        55.2334    6.3689   27.2967 O.co2       1 GG9      -0.5537
     26 O14        55.3320    8.8387   27.2169 O.3         1 GG9      -0.2326
     27 F1         54.4620   11.1291   26.6746 F           1 GG9      -0.2037
     28 F2         53.2888   10.9973   28.5581 F           1 GG9      -0.2037
     29 H1         60.0402   10.8457   27.1397 H           1 GG9       0.0595
     30 H2         59.2304    8.9740   28.4173 H           1 GG9       0.0831
     31 H3         58.4037    9.1127   30.6384 H           1 GG9       0.0674
     32 H4         56.6594   10.8924   30.6279 H           1 GG9       0.0643
     33 H5         56.8009   12.7010   28.9633 H           1 GG9       0.0411
     34 H6         58.2445   12.7456   29.9164 H           1 GG9       0.0411
     35 H7         58.6199   11.2216   31.7543 H           1 GG9       0.2103
     36 H8         55.0801   11.8311   28.4296 H           1 GG9       0.1071
@<TRIPOS>BOND
     1     1     2   2
     2     6     1   1
     3     1     7   1
     4     3     2   1
     5     4     3   1
     6     3     8   1
     7     5     4   1
     8     4     9   1
     9     5     6   1
    10    10     5   1
    11     7    11  ar
    12     7    12  ar
    13     8    13   1
    14    17    10   1
    15    13    14  ar
    16    13    15  ar
    17    13    16  ar
    18    17    18   1
    19    17    19   1
    20    26    17   1
    21    18    27   1
    22    18    28   1
    23    19    20  ar
    24    19    21  ar
    25    22    23  ar
    26    22    24  ar
    27    22    25  ar
    28    22    26   1
    29     2    29   1
    30     3    30   1
    31     4    31   1
    32     5    32   1
    33     6    33   1
    34     6    34   1
    35     9    35   1
    36    18    36   1
@<TRIPOS>SUBSTRUCTURE
     1  GG9      1

