@<TRIPOS>MOLECULE
2pq9_ligand_014
    36    36
SMALL
GAST_HUCK
****
This file was generated by PARSER (from files_GN.cpp)

@<TRIPOS>ATOM
      1 C1         55.3567    7.4430   28.0772 C.2         1 GG9      -0.0206
      2 C2         55.4281    6.4205   27.1979 C.2         1 GG9      -0.0423
      3 C3         56.7154    6.0665   26.5887 C.3         1 GG9       0.1415
      4 C4         57.3711    7.4013   26.1032 C.3         1 GG9       0.1216
      5 C5         57.5273    8.4470   27.2681 C.3         1 GG9       0.0983
      6 C6         56.6064    8.1040   28.4868 C.3         1 GG9       0.0036
      7 C7         54.1378    7.9041   28.5346 C.2         1 GG9       0.0477
      8 O1         56.6821    5.1467   25.4696 O.3         1 GG9      -0.2592
      9 O2         56.5859    7.9448   25.0374 O.3         1 GG9      -0.3840
     10 O3         58.8925    8.4709   27.7453 O.3         1 GG9      -0.3316
     11 O4         53.2898    8.5026   27.6639 O.co2       1 GG9      -0.5666
     12 O5         53.9932    8.2205   29.8432 O.co2       1 GG9      -0.5666
     13 P1         56.3188    3.6560   25.7487 P.3         1 GG9       0.2044
     14 O6         54.9024    3.4274   25.6292 O.co2       1 GG9      -0.5536
     15 O7         56.7979    3.1830   27.0218 O.co2       1 GG9      -0.5536
     16 O8         56.9529    2.8589   24.7289 O.co2       1 GG9      -0.5536
     17 C8         59.6758    9.6578   28.0628 C.3         1 GG9       0.3058
     18 C9         58.8727   10.9833   28.4174 C.3         1 GG9       0.3020
     19 C10        60.5998    9.8147   26.9136 C.2         1 GG9       0.1145
     20 O9         61.3464   10.9297   26.7920 O.co2       1 GG9      -0.5422
     21 O10        61.1497    8.7186   26.3506 O.co2       1 GG9      -0.5422
     22 P2         60.1525    8.6509   30.4525 P.3         1 GG9       0.2040
     23 O11        60.7547    9.3554   31.5641 O.co2       1 GG9      -0.5537
     24 O12        60.6695    7.2993   30.4805 O.co2       1 GG9      -0.5537
     25 O13        58.7242    8.6084   30.6722 O.co2       1 GG9      -0.5537
     26 O14        60.6035    9.3409   29.1355 O.3         1 GG9      -0.2326
     27 F1         59.0367   11.3891   29.7295 F           1 GG9      -0.2037
     28 F2         59.1965   12.0662   27.6201 F           1 GG9      -0.2037
     29 H1         54.6014    5.9637   26.8858 H           1 GG9       0.0595
     30 H2         57.3619    5.6523   27.3686 H           1 GG9       0.0831
     31 H3         58.3471    7.1963   25.6703 H           1 GG9       0.0674
     32 H4         57.2359    9.4189   26.8811 H           1 GG9       0.0643
     33 H5         57.1432    7.4074   29.1369 H           1 GG9       0.0411
     34 H6         56.4210    9.0059   29.0762 H           1 GG9       0.0411
     35 H7         55.7620    8.2730   25.4671 H           1 GG9       0.2103
     36 H8         57.7964   10.8278   28.2989 H           1 GG9       0.1071
@<TRIPOS>BOND
     1     1     2   2
     2     6     1   1
     3     1     7   1
     4     3     2   1
     5     4     3   1
     6     3     8   1
     7     5     4   1
     8     4     9   1
     9     5     6   1
    10    10     5   1
    11     7    11  ar
    12     7    12  ar
    13     8    13   1
    14    17    10   1
    15    13    14  ar
    16    13    15  ar
    17    13    16  ar
    18    17    18   1
    19    17    19   1
    20    26    17   1
    21    18    27   1
    22    18    28   1
    23    19    20  ar
    24    19    21  ar
    25    22    23  ar
    26    22    24  ar
    27    22    25  ar
    28    22    26   1
    29     2    29   1
    30     3    30   1
    31     4    31   1
    32     5    32   1
    33     6    33   1
    34     6    34   1
    35     9    35   1
    36    18    36   1
@<TRIPOS>SUBSTRUCTURE
     1  GG9      1

