@<TRIPOS>MOLECULE
2pq9_ligand_013
    36    36
SMALL
GAST_HUCK
****
This file was generated by PARSER (from files_GN.cpp)

@<TRIPOS>ATOM
      1 C1         57.1914   12.3662   27.7465 C.2         1 GG9      -0.0206
      2 C2         56.0271   11.9369   28.2851 C.2         1 GG9      -0.0423
      3 C3         56.0279   10.9014   29.3022 C.3         1 GG9       0.1415
      4 C4         56.9481    9.7446   28.7867 C.3         1 GG9       0.1216
      5 C5         58.4089   10.2311   28.4897 C.3         1 GG9       0.0983
      6 C6         58.4599   11.7908   28.2345 C.3         1 GG9       0.0036
      7 C7         57.1749   13.3774   26.8068 C.2         1 GG9       0.0477
      8 O1         54.6641   10.5431   29.6135 O.3         1 GG9      -0.2592
      9 O2         56.3884    9.1304   27.6097 O.3         1 GG9      -0.3840
     10 O3         59.2856    9.9366   29.5989 O.3         1 GG9      -0.3316
     11 O4         57.9115   14.4907   26.9823 O.co2       1 GG9      -0.5666
     12 O5         56.4881   13.2465   25.6422 O.co2       1 GG9      -0.5666
     13 P1         54.4450    9.4882   30.7342 P.3         1 GG9       0.2044
     14 O6         53.2347    9.7977   31.4558 O.co2       1 GG9      -0.5536
     15 O7         55.5127    9.3950   31.7041 O.co2       1 GG9      -0.5536
     16 O8         54.2503    8.1923   30.1310 O.co2       1 GG9      -0.5536
     17 C8         59.9209    8.6544   29.8670 C.3         1 GG9       0.3058
     18 C9         58.8860    7.4912   30.0895 C.3         1 GG9       0.3020
     19 C10        60.6526    8.9681   31.1211 C.2         1 GG9       0.1145
     20 O9         60.9907    8.0017   32.0038 O.co2       1 GG9      -0.5422
     21 O10        61.3107   10.1463   31.2323 O.co2       1 GG9      -0.5422
     22 P2         61.7856    7.0986   28.8112 P.3         1 GG9       0.2040
     23 O11        61.0770    5.9216   28.3812 O.co2       1 GG9      -0.5537
     24 O12        62.3986    6.8102   30.0827 O.co2       1 GG9      -0.5537
     25 O13        62.8484    7.3043   27.8624 O.co2       1 GG9      -0.5537
     26 O14        60.8742    8.3765   28.8051 O.3         1 GG9      -0.2326
     27 F1         57.9949    7.7940   31.0873 F           1 GG9      -0.2037
     28 F2         58.2034    7.1937   28.9340 F           1 GG9      -0.2037
     29 H1         55.1636   12.3224   27.9823 H           1 GG9       0.0595
     30 H2         56.4935   11.3372   30.1944 H           1 GG9       0.0831
     31 H3         56.9650    8.9865   29.5555 H           1 GG9       0.0674
     32 H4         58.7844    9.7330   27.5941 H           1 GG9       0.0643
     33 H5         58.6746   12.3026   29.1816 H           1 GG9       0.0411
     34 H6         59.2858   12.0157   27.5534 H           1 GG9       0.0411
     35 H7         55.5898    8.6505   27.9287 H           1 GG9       0.2103
     36 H8         59.3914    6.5745   30.3983 H           1 GG9       0.1071
@<TRIPOS>BOND
     1     1     2   2
     2     6     1   1
     3     1     7   1
     4     3     2   1
     5     4     3   1
     6     3     8   1
     7     5     4   1
     8     4     9   1
     9     5     6   1
    10    10     5   1
    11     7    11  ar
    12     7    12  ar
    13     8    13   1
    14    17    10   1
    15    13    14  ar
    16    13    15  ar
    17    13    16  ar
    18    17    18   1
    19    17    19   1
    20    26    17   1
    21    18    27   1
    22    18    28   1
    23    19    20  ar
    24    19    21  ar
    25    22    23  ar
    26    22    24  ar
    27    22    25  ar
    28    22    26   1
    29     2    29   1
    30     3    30   1
    31     4    31   1
    32     5    32   1
    33     6    33   1
    34     6    34   1
    35     9    35   1
    36    18    36   1
@<TRIPOS>SUBSTRUCTURE
     1  GG9      1

