@<TRIPOS>MOLECULE
2pq9_ligand_012
    36    36
SMALL
GAST_HUCK
****
This file was generated by PARSER (from files_GN.cpp)

@<TRIPOS>ATOM
      1 C1         60.4066    9.2178   27.8827 C.2         1 GG9      -0.0206
      2 C2         60.6305    7.9671   28.3529 C.2         1 GG9      -0.0423
      3 C3         60.0399    7.5005   29.6069 C.3         1 GG9       0.1415
      4 C4         58.5149    7.8213   29.5859 C.3         1 GG9       0.1216
      5 C5         58.1676    9.2610   29.0429 C.3         1 GG9       0.0983
      6 C6         59.4437   10.0525   28.6107 C.3         1 GG9       0.0036
      7 C7         61.0749    9.6986   26.7622 C.2         1 GG9       0.0477
      8 O1         60.5761    8.0981   30.8117 O.3         1 GG9      -0.2592
      9 O2         57.9321    7.6108   30.8668 O.3         1 GG9      -0.3840
     10 O3         57.2442    9.2884   27.9202 O.3         1 GG9      -0.3316
     11 O4         61.7396    8.8749   25.9227 O.co2       1 GG9      -0.5666
     12 O5         61.1673   11.0231   26.4949 O.co2       1 GG9      -0.5666
     13 P1         62.0741    8.4745   30.9186 P.3         1 GG9       0.2044
     14 O6         62.9780    7.5931   30.2079 O.co2       1 GG9      -0.5536
     15 O7         62.4100    8.5088   32.3217 O.co2       1 GG9      -0.5536
     16 O8         62.1622    9.8264   30.4095 O.co2       1 GG9      -0.5536
     17 C8         55.9304    8.6533   27.9309 C.3         1 GG9       0.3058
     18 C9         56.0352    7.3359   27.0767 C.3         1 GG9       0.3020
     19 C10        54.9500    9.5142   27.2011 C.2         1 GG9       0.1145
     20 O9         55.1885   10.8250   26.9664 O.co2       1 GG9      -0.5422
     21 O10        53.7132    9.0254   26.9380 O.co2       1 GG9      -0.5422
     22 P2         55.0963    9.4128   30.3540 P.3         1 GG9       0.2040
     23 O11        55.4651   10.7660   30.0034 O.co2       1 GG9      -0.5537
     24 O12        55.7873    9.0868   31.5824 O.co2       1 GG9      -0.5537
     25 O13        53.6817    9.4170   30.6600 O.co2       1 GG9      -0.5537
     26 O14        55.4532    8.3303   29.2779 O.3         1 GG9      -0.2326
     27 F1         57.2792    6.7431   27.0861 F           1 GG9      -0.2037
     28 F2         55.1358    6.3855   27.5070 F           1 GG9      -0.2037
     29 H1         61.2602    7.3554   27.8803 H           1 GG9       0.0595
     30 H2         60.1740    6.4131   29.6916 H           1 GG9       0.0831
     31 H3         58.0571    7.0801   28.9338 H           1 GG9       0.0674
     32 H4         57.7414    9.8494   29.8521 H           1 GG9       0.0643
     33 H5         59.1399   10.9369   28.0407 H           1 GG9       0.0411
     34 H6         59.9388   10.4192   29.5190 H           1 GG9       0.0411
     35 H7         58.3663    8.2549   31.4800 H           1 GG9       0.2103
     36 H8         55.8242    7.5434   26.0226 H           1 GG9       0.1071
@<TRIPOS>BOND
     1     1     2   2
     2     6     1   1
     3     1     7   1
     4     3     2   1
     5     4     3   1
     6     3     8   1
     7     5     4   1
     8     4     9   1
     9     5     6   1
    10    10     5   1
    11     7    11  ar
    12     7    12  ar
    13     8    13   1
    14    17    10   1
    15    13    14  ar
    16    13    15  ar
    17    13    16  ar
    18    17    18   1
    19    17    19   1
    20    26    17   1
    21    18    27   1
    22    18    28   1
    23    19    20  ar
    24    19    21  ar
    25    22    23  ar
    26    22    24  ar
    27    22    25  ar
    28    22    26   1
    29     2    29   1
    30     3    30   1
    31     4    31   1
    32     5    32   1
    33     6    33   1
    34     6    34   1
    35     9    35   1
    36    18    36   1
@<TRIPOS>SUBSTRUCTURE
     1  GG9      1

