@<TRIPOS>MOLECULE
2pq9_ligand_015
    36    36
SMALL
GAST_HUCK
****
This file was generated by PARSER (from files_GN.cpp)

@<TRIPOS>ATOM
      1 C1         56.5141   11.6334   28.4151 C.2         1 GG9      -0.0206
      2 C2         57.8078   11.8014   28.7541 C.2         1 GG9      -0.0423
      3 C3         58.4565   10.9829   29.7784 C.3         1 GG9       0.1415
      4 C4         58.0827    9.4995   29.5185 C.3         1 GG9       0.1216
      5 C5         56.5371    9.2586   29.4982 C.3         1 GG9       0.0983
      6 C6         55.7373   10.5558   29.0624 C.3         1 GG9       0.0036
      7 C7         55.9036   12.5327   27.5231 C.2         1 GG9       0.0477
      8 O1         58.0060   11.4206   31.0848 O.3         1 GG9      -0.2592
      9 O2         58.7389    8.6312   30.4474 O.3         1 GG9      -0.3840
     10 O3         56.3335    7.9590   28.8736 O.3         1 GG9      -0.3316
     11 O4         56.3031   13.8223   27.3804 O.co2       1 GG9      -0.5666
     12 O5         54.8765   12.1568   26.7275 O.co2       1 GG9      -0.5666
     13 P1         58.7010   12.6573   31.7562 P.3         1 GG9       0.2044
     14 O6         59.6503   13.3477   30.9202 O.co2       1 GG9      -0.5536
     15 O7         59.3844   12.2460   32.9507 O.co2       1 GG9      -0.5536
     16 O8         57.7074   13.6184   32.1611 O.co2       1 GG9      -0.5536
     17 C8         55.5423    7.6040   27.7102 C.3         1 GG9       0.3058
     18 C9         56.0482    8.3638   26.4471 C.3         1 GG9       0.3020
     19 C10        54.1225    7.8381   28.0326 C.2         1 GG9       0.1145
     20 O9         53.2771    8.4747   27.2026 O.co2       1 GG9      -0.5422
     21 O10        53.5953    7.2801   29.1400 O.co2       1 GG9      -0.5422
     22 P2         56.7191    5.3331   26.9589 P.3         1 GG9       0.2040
     23 O11        56.8271    5.5072   25.5321 O.co2       1 GG9      -0.5537
     24 O12        56.4397    3.9381   27.2033 O.co2       1 GG9      -0.5537
     25 O13        57.9789    5.6381   27.5883 O.co2       1 GG9      -0.5537
     26 O14        55.5348    6.1664   27.5302 O.3         1 GG9      -0.2326
     27 F1         57.4130    8.5203   26.4509 F           1 GG9      -0.2037
     28 F2         55.7312    7.7101   25.2879 F           1 GG9      -0.2037
     29 H1         58.3756   12.4824   28.2972 H           1 GG9       0.0595
     30 H2         59.5454   11.0558   29.6884 H           1 GG9       0.0831
     31 H3         58.4815    9.2300   28.5344 H           1 GG9       0.0674
     32 H4         56.2491    9.0901   30.5396 H           1 GG9       0.0643
     33 H5         54.8777   10.2753   28.4676 H           1 GG9       0.0411
     34 H6         55.3161   11.0097   29.9594 H           1 GG9       0.0411
     35 H7         58.4351    8.8971   31.3379 H           1 GG9       0.2103
     36 H8         55.6043    9.3601   26.3973 H           1 GG9       0.1071
@<TRIPOS>BOND
     1     1     2   2
     2     6     1   1
     3     1     7   1
     4     3     2   1
     5     4     3   1
     6     3     8   1
     7     5     4   1
     8     4     9   1
     9     5     6   1
    10    10     5   1
    11     7    11  ar
    12     7    12  ar
    13     8    13   1
    14    17    10   1
    15    13    14  ar
    16    13    15  ar
    17    13    16  ar
    18    17    18   1
    19    17    19   1
    20    26    17   1
    21    18    27   1
    22    18    28   1
    23    19    20  ar
    24    19    21  ar
    25    22    23  ar
    26    22    24  ar
    27    22    25  ar
    28    22    26   1
    29     2    29   1
    30     3    30   1
    31     4    31   1
    32     5    32   1
    33     6    33   1
    34     6    34   1
    35     9    35   1
    36    18    36   1
@<TRIPOS>SUBSTRUCTURE
     1  GG9      1

