@<TRIPOS>MOLECULE
2pq9_ligand_047
    36    36
SMALL
GAST_HUCK
****
This file was generated by PARSER (from files_GN.cpp)

@<TRIPOS>ATOM
      1 C1         56.9572    8.2631   27.0430 C.2         1 GG9      -0.0206
      2 C2         56.0492    9.2519   27.1562 C.2         1 GG9      -0.0423
      3 C3         55.7659    9.8503   28.4582 C.3         1 GG9       0.1415
      4 C4         57.1453   10.1838   29.1146 C.3         1 GG9       0.1216
      5 C5         58.0763    8.9177   29.2453 C.3         1 GG9       0.0983
      6 C6         57.6476    7.7830   28.2404 C.3         1 GG9       0.0036
      7 C7         57.1230    7.6258   25.8414 C.2         1 GG9       0.0477
      8 O1         55.0127    8.9871   29.3535 O.3         1 GG9      -0.2592
      9 O2         56.9549   10.8321   30.3692 O.3         1 GG9      -0.3840
     10 O3         59.4598    9.3743   29.2933 O.3         1 GG9      -0.3316
     11 O4         56.4895    6.4391   25.6878 O.co2       1 GG9      -0.5666
     12 O5         58.2604    7.8025   25.1382 O.co2       1 GG9      -0.5666
     13 P1         54.0056    7.9396   28.7788 P.3         1 GG9       0.2044
     14 O6         54.6951    6.9336   28.0134 O.co2       1 GG9      -0.5536
     15 O7         52.9759    8.4959   27.9421 O.co2       1 GG9      -0.5536
     16 O8         53.4041    7.2456   29.8865 O.co2       1 GG9      -0.5536
     17 C8         60.5769    8.8530   28.5285 C.3         1 GG9       0.3058
     18 C9         61.9341    9.2722   29.1813 C.3         1 GG9       0.3020
     19 C10        60.4814    9.5038   27.1955 C.2         1 GG9       0.1145
     20 O9         60.4737   10.8539   27.0898 O.co2       1 GG9      -0.5422
     21 O10        60.6926    8.8147   26.0480 O.co2       1 GG9      -0.5422
     22 P2         60.9147    6.3598   29.3984 P.3         1 GG9       0.2040
     23 O11        59.8635    6.0920   30.3459 O.co2       1 GG9      -0.5537
     24 O12        62.1789    6.5920   30.0485 O.co2       1 GG9      -0.5537
     25 O13        61.1072    5.1500   28.6371 O.co2       1 GG9      -0.5537
     26 O14        60.5634    7.4194   28.3116 O.3         1 GG9      -0.2326
     27 F1         61.8034    9.5131   30.5284 F           1 GG9      -0.2037
     28 F2         62.8709    8.2763   29.0181 F           1 GG9      -0.2037
     29 H1         55.5318    9.5732   26.3622 H           1 GG9       0.0595
     30 H2         55.1966   10.7789   28.3250 H           1 GG9       0.0831
     31 H3         57.6528   10.9202   28.4794 H           1 GG9       0.0674
     32 H4         57.9002    8.5105   30.2459 H           1 GG9       0.0643
     33 H5         58.4685    7.1379   27.9683 H           1 GG9       0.0411
     34 H6         56.9357    7.1376   28.7603 H           1 GG9       0.0411
     35 H7         56.3751   10.2358   30.8920 H           1 GG9       0.2103
     36 H8         62.3553   10.1691   28.7373 H           1 GG9       0.1071
@<TRIPOS>BOND
     1     1     2   2
     2     6     1   1
     3     1     7   1
     4     3     2   1
     5     4     3   1
     6     3     8   1
     7     5     4   1
     8     4     9   1
     9     5     6   1
    10    10     5   1
    11     7    11  ar
    12     7    12  ar
    13     8    13   1
    14    17    10   1
    15    13    14  ar
    16    13    15  ar
    17    13    16  ar
    18    17    18   1
    19    17    19   1
    20    26    17   1
    21    18    27   1
    22    18    28   1
    23    19    20  ar
    24    19    21  ar
    25    22    23  ar
    26    22    24  ar
    27    22    25  ar
    28    22    26   1
    29     2    29   1
    30     3    30   1
    31     4    31   1
    32     5    32   1
    33     6    33   1
    34     6    34   1
    35     9    35   1
    36    18    36   1
@<TRIPOS>SUBSTRUCTURE
     1  GG9      1

