@<TRIPOS>MOLECULE
2pq9_ligand_005
    36    36
SMALL
GAST_HUCK
****
This file was generated by PARSER (from files_GN.cpp)

@<TRIPOS>ATOM
      1 C1         60.2083    9.2480   27.6733 C.2         1 GG9      -0.0206
      2 C2         60.4579    8.0516   28.2453 C.2         1 GG9      -0.0423
      3 C3         59.8643    7.6676   29.5232 C.3         1 GG9       0.1415
      4 C4         58.3364    7.9947   29.4757 C.3         1 GG9       0.1216
      5 C5         58.0198    9.4486   28.9583 C.3         1 GG9       0.0983
      6 C6         59.2772   10.1540   28.3596 C.3         1 GG9       0.0036
      7 C7         60.8834    9.6338   26.5180 C.2         1 GG9       0.0477
      8 O1         60.4177    8.3650   30.6639 O.3         1 GG9      -0.2592
      9 O2         57.7690    7.7902   30.7714 O.3         1 GG9      -0.3840
     10 O3         57.0308    9.4050   27.9067 O.3         1 GG9      -0.3316
     11 O4         62.1357    9.1763   26.2959 O.co2       1 GG9      -0.5666
     12 O5         60.5384   10.7396   25.8178 O.co2       1 GG9      -0.5666
     13 P1         61.9473    8.5452   30.8601 P.3         1 GG9       0.2044
     14 O6         62.2397    9.8983   30.4555 O.co2       1 GG9      -0.5536
     15 O7         62.7842    7.6017   30.1542 O.co2       1 GG9      -0.5536
     16 O8         62.2035    8.4718   32.2771 O.co2       1 GG9      -0.5536
     17 C8         55.6310    9.7997   27.9961 C.3         1 GG9       0.3058
     18 C9         54.9155    9.8650   29.4004 C.3         1 GG9       0.3020
     19 C10        54.9225    8.7757   27.1767 C.2         1 GG9       0.1145
     20 O9         55.5724    7.7307   26.6153 O.co2       1 GG9      -0.5422
     21 O10        53.5714    8.7477   27.0901 O.co2       1 GG9      -0.5422
     22 P2         56.1062   12.3719   27.5773 P.3         1 GG9       0.2040
     23 O11        55.1505   13.4230   27.3449 O.co2       1 GG9      -0.5537
     24 O12        57.1504   12.6283   26.6120 O.co2       1 GG9      -0.5537
     25 O13        56.6364   12.5543   28.9043 O.co2       1 GG9      -0.5537
     26 O14        55.3691   11.0294   27.2663 O.3         1 GG9      -0.2326
     27 F1         54.6663    8.6134   29.9206 F           1 GG9      -0.2037
     28 F2         55.6262   10.5697   30.3463 F           1 GG9      -0.2037
     29 H1         61.0755    7.4020   27.8161 H           1 GG9       0.0595
     30 H2         59.9897    6.5879   29.6827 H           1 GG9       0.0831
     31 H3         57.8680    7.2619   28.8109 H           1 GG9       0.0674
     32 H4         57.6825   10.0692   29.7879 H           1 GG9       0.0643
     33 H5         58.9583   10.9856   27.7312 H           1 GG9       0.0411
     34 H6         59.8221   10.5965   29.1951 H           1 GG9       0.0411
     35 H7         58.2228    8.4262   31.3666 H           1 GG9       0.2103
     36 H8         53.9468   10.3796   29.2934 H           1 GG9       0.1071
@<TRIPOS>BOND
     1     1     2   2
     2     6     1   1
     3     1     7   1
     4     3     2   1
     5     4     3   1
     6     3     8   1
     7     5     4   1
     8     4     9   1
     9     5     6   1
    10    10     5   1
    11     7    11  ar
    12     7    12  ar
    13     8    13   1
    14    17    10   1
    15    13    14  ar
    16    13    15  ar
    17    13    16  ar
    18    17    18   1
    19    17    19   1
    20    26    17   1
    21    18    27   1
    22    18    28   1
    23    19    20  ar
    24    19    21  ar
    25    22    23  ar
    26    22    24  ar
    27    22    25  ar
    28    22    26   1
    29     2    29   1
    30     3    30   1
    31     4    31   1
    32     5    32   1
    33     6    33   1
    34     6    34   1
    35     9    35   1
    36    18    36   1
@<TRIPOS>SUBSTRUCTURE
     1  GG9      1

