@<TRIPOS>MOLECULE
2pq9_ligand_030
    36    36
SMALL
GAST_HUCK
****
This file was generated by PARSER (from files_GN.cpp)

@<TRIPOS>ATOM
      1 C1         56.9161    9.9529   31.0873 C.2         1 GG9      -0.0206
      2 C2         56.1495    9.2370   30.2293 C.2         1 GG9      -0.0423
      3 C3         56.5290    8.8875   28.8636 C.3         1 GG9       0.1415
      4 C4         57.6876    9.7647   28.3074 C.3         1 GG9       0.1216
      5 C5         58.8211    9.8922   29.3498 C.3         1 GG9       0.0983
      6 C6         58.2188   10.4901   30.6555 C.3         1 GG9       0.0036
      7 C7         56.4639   10.2539   32.3681 C.2         1 GG9       0.0477
      8 O1         55.4141    9.0490   27.9554 O.3         1 GG9      -0.2592
      9 O2         57.2152   11.0618   27.9285 O.3         1 GG9      -0.3840
     10 O3         59.3883    8.5598   29.5005 O.3         1 GG9      -0.3316
     11 O4         57.0523   11.2108   33.1300 O.co2       1 GG9      -0.5666
     12 O5         55.3929    9.6512   32.9418 O.co2       1 GG9      -0.5666
     13 P1         54.3524    7.9132   27.8628 P.3         1 GG9       0.2044
     14 O6         54.8149    6.7885   27.0900 O.co2       1 GG9      -0.5536
     15 O7         53.2197    8.4892   27.1844 O.co2       1 GG9      -0.5536
     16 O8         53.8844    7.4896   29.1563 O.co2       1 GG9      -0.5536
     17 C8         60.8189    8.3388   29.6445 C.3         1 GG9       0.3058
     18 C9         61.0914    6.7965   29.6181 C.3         1 GG9       0.3020
     19 C10        61.2293    8.8515   30.9800 C.2         1 GG9       0.1145
     20 O9         61.6491   10.1212   31.1407 O.co2       1 GG9      -0.5422
     21 O10        61.0348    8.1073   32.1048 O.co2       1 GG9      -0.5422
     22 P2         61.1987    9.3758   27.2328 P.3         1 GG9       0.2040
     23 O11        60.8377   10.7695   27.2046 O.co2       1 GG9      -0.5537
     24 O12        60.1107    8.6205   26.6701 O.co2       1 GG9      -0.5537
     25 O13        62.3037    9.2691   26.3153 O.co2       1 GG9      -0.5537
     26 O14        61.6728    8.9980   28.6628 O.3         1 GG9      -0.2326
     27 F1         60.1280    6.0840   30.3019 F           1 GG9      -0.2037
     28 F2         61.1177    6.2572   28.3501 F           1 GG9      -0.2037
     29 H1         55.2787    8.8756   30.5538 H           1 GG9       0.0595
     30 H2         56.8867    7.8497   28.8879 H           1 GG9       0.0831
     31 H3         58.0812    9.2804   27.4091 H           1 GG9       0.0674
     32 H4         59.5719   10.5923   28.9642 H           1 GG9       0.0643
     33 H5         58.9551   10.3546   31.4428 H           1 GG9       0.0411
     34 H6         58.0950   11.5692   30.5207 H           1 GG9       0.0411
     35 H7         57.9938   11.6558   27.9975 H           1 GG9       0.2103
     36 H8         62.0659    6.5700   30.0665 H           1 GG9       0.1071
@<TRIPOS>BOND
     1     1     2   2
     2     6     1   1
     3     1     7   1
     4     3     2   1
     5     4     3   1
     6     3     8   1
     7     5     4   1
     8     4     9   1
     9     5     6   1
    10    10     5   1
    11     7    11  ar
    12     7    12  ar
    13     8    13   1
    14    17    10   1
    15    13    14  ar
    16    13    15  ar
    17    13    16  ar
    18    17    18   1
    19    17    19   1
    20    26    17   1
    21    18    27   1
    22    18    28   1
    23    19    20  ar
    24    19    21  ar
    25    22    23  ar
    26    22    24  ar
    27    22    25  ar
    28    22    26   1
    29     2    29   1
    30     3    30   1
    31     4    31   1
    32     5    32   1
    33     6    33   1
    34     6    34   1
    35     9    35   1
    36    18    36   1
@<TRIPOS>SUBSTRUCTURE
     1  GG9      1

