@<TRIPOS>MOLECULE
2pq9_ligand_025
    36    36
SMALL
GAST_HUCK
****
This file was generated by PARSER (from files_GN.cpp)

@<TRIPOS>ATOM
      1 C1         59.6872    8.9661   26.8878 C.2         1 GG9      -0.0206
      2 C2         58.7333    8.2108   26.3013 C.2         1 GG9      -0.0423
      3 C3         57.6543    7.5351   27.0130 C.3         1 GG9       0.1415
      4 C4         57.8287    7.5653   28.5672 C.3         1 GG9       0.1216
      5 C5         58.3252    8.9783   29.0175 C.3         1 GG9       0.0983
      6 C6         59.6899    9.2546   28.3247 C.3         1 GG9       0.0036
      7 C7         60.6993    9.4775   26.1064 C.2         1 GG9       0.0477
      8 O1         57.6048    6.1826   26.5041 O.3         1 GG9      -0.2592
      9 O2         58.7769    6.5678   28.9805 O.3         1 GG9      -0.3840
     10 O3         57.4493   10.0868   28.6372 O.3         1 GG9      -0.3316
     11 O4         60.5412   10.7224   25.6104 O.co2       1 GG9      -0.5666
     12 O5         61.9694    9.0557   26.3178 O.co2       1 GG9      -0.5666
     13 P1         56.2427    5.4329   26.4109 P.3         1 GG9       0.2044
     14 O6         56.2667    4.9132   25.0612 O.co2       1 GG9      -0.5536
     15 O7         55.0632    6.2530   26.5134 O.co2       1 GG9      -0.5536
     16 O8         56.1457    4.2591   27.2577 O.co2       1 GG9      -0.5536
     17 C8         56.0577   10.1518   29.0354 C.3         1 GG9       0.3058
     18 C9         55.5625   11.5323   28.4937 C.3         1 GG9       0.3020
     19 C10        55.9515   10.1253   30.5307 C.2         1 GG9       0.1145
     20 O9         56.8527   10.8019   31.2831 O.co2       1 GG9      -0.5422
     21 O10        55.0603    9.3331   31.1904 O.co2       1 GG9      -0.5422
     22 P2         53.9090    8.6741   28.3862 P.3         1 GG9       0.2040
     23 O11        53.7525    7.5501   29.2717 O.co2       1 GG9      -0.5537
     24 O12        53.5516    8.1716   27.0805 O.co2       1 GG9      -0.5537
     25 O13        53.0011    9.7424   28.7291 O.co2       1 GG9      -0.5537
     26 O14        55.4111    9.0798   28.2956 O.3         1 GG9      -0.2326
     27 F1         56.5418   12.5029   28.5599 F           1 GG9      -0.2037
     28 F2         55.1657   11.4374   27.1723 F           1 GG9      -0.2037
     29 H1         58.7381    8.1201   25.3024 H           1 GG9       0.0595
     30 H2         56.7418    8.0816   26.7266 H           1 GG9       0.0831
     31 H3         56.8762    7.3372   29.0496 H           1 GG9       0.0674
     32 H4         58.4793    8.9792   30.0994 H           1 GG9       0.0643
     33 H5         59.9442   10.3085   28.4970 H           1 GG9       0.0411
     34 H6         60.4746    8.6524   28.8029 H           1 GG9       0.0411
     35 H7         58.8839    6.7250   29.9415 H           1 GG9       0.2103
     36 H8         54.7017   11.8649   29.0642 H           1 GG9       0.1071
@<TRIPOS>BOND
     1     1     2   2
     2     6     1   1
     3     1     7   1
     4     3     2   1
     5     4     3   1
     6     3     8   1
     7     5     4   1
     8     4     9   1
     9     5     6   1
    10    10     5   1
    11     7    11  ar
    12     7    12  ar
    13     8    13   1
    14    17    10   1
    15    13    14  ar
    16    13    15  ar
    17    13    16  ar
    18    17    18   1
    19    17    19   1
    20    26    17   1
    21    18    27   1
    22    18    28   1
    23    19    20  ar
    24    19    21  ar
    25    22    23  ar
    26    22    24  ar
    27    22    25  ar
    28    22    26   1
    29     2    29   1
    30     3    30   1
    31     4    31   1
    32     5    32   1
    33     6    33   1
    34     6    34   1
    35     9    35   1
    36    18    36   1
@<TRIPOS>SUBSTRUCTURE
     1  GG9      1

