@<TRIPOS>MOLECULE
2qbp_ligand_028
    60    63
SMALL
GAST_HUCK
****
This file was generated by PARSER (from files_GN.cpp)

@<TRIPOS>ATOM
      1 S1         44.9070   14.9131    1.0670 S.3         1 MOL      -0.0382
      2 C2         45.6822   16.0459    2.1095 C.2         1 MOL       0.0813
      3 C3         46.4871   15.2972    2.9818 C.2         1 MOL       0.1014
      4 C4         46.4642   13.9103    2.7528 C.2         1 MOL       0.0465
      5 C5         45.6293   13.4840    1.7028 C.2         1 MOL       0.0450
      6 C6         45.5427   17.4345    1.9760 C.2         1 MOL       0.0555
      7 O7         46.5519   18.2789    2.2579 O.co2       1 MOL      -0.5699
      8 O8         44.4382   17.9536    1.3877 O.co2       1 MOL      -0.5699
      9 C9         45.4888   12.2175    1.0849 C.ar        1 MOL      -0.0166
     10 C10        46.6174   11.4227    0.7776 C.ar        1 MOL      -0.0362
     11 C11        46.5002   10.2949   -0.0660 C.ar        1 MOL       0.0383
     12 C12        45.2435    9.9476   -0.5915 C.ar        1 MOL      -0.0440
     13 C13        44.0947   10.6792   -0.2207 C.ar        1 MOL      -0.0722
     14 C14        44.2187   11.8038    0.6081 C.ar        1 MOL      -0.0655
     15 BR19       47.4468   12.7268    3.8104 Br          1 MOL      -0.0668
     16 O20        47.2793   15.7977    3.9961 O.3         1 MOL      -0.3141
     17 C21        46.6839   16.6489    4.9977 C.3         1 MOL       0.1195
     18 C22        45.3484   16.2812    5.4969 C.2         1 MOL       0.0648
     19 O25        44.2884   17.0783    5.2338 O.co2       1 MOL      -0.5663
     20 O26        45.1665   15.1623    6.2317 O.co2       1 MOL      -0.5663
     21 N29        47.5809    9.5539   -0.4232 N.pl3       1 MOL      -0.3201
     22 C30        48.1180    8.5883    0.5041 C.3         1 MOL       0.0379
     23 C31        48.3475    7.2419   -0.2629 C.3         1 MOL      -0.0135
     24 C32        49.6455    7.2656   -1.1270 C.3         1 MOL       0.0314
     25 N33        50.7560    7.6326   -0.2918 N.am        1 MOL      -0.2365
     26 C34        50.6916    8.9341    0.3312 C.3         1 MOL       0.0314
     27 C35        49.4270    9.0426    1.2234 C.3         1 MOL      -0.0135
     28 S46        51.8979    6.4797    0.2136 S.o2        1 MOL       0.0512
     29 O47        52.4105    6.8280    1.6877 O.2         1 MOL      -0.1532
     30 O48        53.1824    6.6647   -0.7051 O.2         1 MOL      -0.1532
     31 C49        51.5154    4.7031    0.2010 C.3         1 MOL       0.1181
     32 C50        50.0969    4.3816    0.5192 C.ar        1 MOL      -0.0204
     33 C53        49.2244    3.9004   -0.4896 C.ar        1 MOL      -0.0587
     34 C54        47.8670    3.6597   -0.2077 C.ar        1 MOL      -0.0685
     35 C55        47.3653    3.8744    1.0864 C.ar        1 MOL      -0.0687
     36 C56        48.2293    4.3077    2.1062 C.ar        1 MOL      -0.0685
     37 C57        49.5848    4.5488    1.8296 C.ar        1 MOL      -0.0587
     38 H1         47.5473   11.7272    1.0693 H           1 MOL       0.0516
     39 H2         45.1442    9.1346   -1.2013 H           1 MOL       0.0521
     40 H3         43.1828   10.3905   -0.5773 H           1 MOL       0.0585
     41 H4         43.3743   12.3376    0.8338 H           1 MOL       0.0520
     42 H5         46.6625   17.6766    4.6319 H           1 MOL       0.0780
     43 H6         47.3670   16.6402    5.8484 H           1 MOL       0.0780
     44 H7         47.5211    9.2031   -1.3280 H           1 MOL       0.1756
     45 H8         47.3803    8.3735    1.2891 H           1 MOL       0.0548
     46 H9         47.4937    7.0237   -0.9112 H           1 MOL       0.0303
     47 H10        48.4166    6.4265    0.4588 H           1 MOL       0.0303
     48 H11        49.5416    8.0022   -1.9306 H           1 MOL       0.0479
     49 H12        49.7851    6.2968   -1.6040 H           1 MOL       0.0479
     50 H13        50.6441    9.7005   -0.4467 H           1 MOL       0.0479
     51 H14        51.5870    9.1444    0.9315 H           1 MOL       0.0479
     52 H15        49.5823    8.3997    2.0998 H           1 MOL       0.0303
     53 H16        49.3208   10.0685    1.5875 H           1 MOL       0.0303
     54 H17        52.1622    4.2045    0.9269 H           1 MOL       0.0682
     55 H18        51.7974    4.3260   -0.7859 H           1 MOL       0.0682
     56 H19        49.5627    3.7427   -1.4394 H           1 MOL       0.0557
     57 H20        47.2407    3.3360   -0.9509 H           1 MOL       0.0599
     58 H21        46.3723    3.7221    1.2832 H           1 MOL       0.0559
     59 H22        47.8660    4.4621    3.0501 H           1 MOL       0.0599
     60 H23        50.1942    4.8747    2.5837 H           1 MOL       0.0557
@<TRIPOS>BOND
     1     1     2   1
     2     1     5   1
     3     2     3   2
     4     2     6   1
     5     3     4   1
     6     3    16   1
     7     4     5   2
     8     4    15   1
     9     5     9   1
    10     6     7  ar
    11     6     8  ar
    12     9    10  ar
    13     9    14  ar
    14    10    11  ar
    15    11    12  ar
    16    11    21   1
    17    12    13  ar
    18    13    14  ar
    19    16    17   1
    20    17    18   1
    21    18    19  ar
    22    18    20  ar
    23    21    22   1
    24    22    23   1
    25    22    27   1
    26    23    24   1
    27    24    25   1
    28    25    26   1
    29    25    28  am
    30    26    27   1
    31    28    29   2
    32    28    30   2
    33    28    31   1
    34    31    32   1
    35    32    33  ar
    36    32    37  ar
    37    33    34  ar
    38    34    35  ar
    39    35    36  ar
    40    36    37  ar
    41    10    38   1
    42    12    39   1
    43    13    40   1
    44    14    41   1
    45    17    42   1
    46    17    43   1
    47    21    44   1
    48    22    45   1
    49    23    46   1
    50    23    47   1
    51    24    48   1
    52    24    49   1
    53    26    50   1
    54    26    51   1
    55    27    52   1
    56    27    53   1
    57    31    54   1
    58    31    55   1
    59    33    56   1
    60    34    57   1
    61    35    58   1
    62    36    59   1
    63    37    60   1
@<TRIPOS>SUBSTRUCTURE
     1  MOL      2

