@<TRIPOS>MOLECULE
2qbp_ligand_039
    60    63
SMALL
GAST_HUCK
****
This file was generated by PARSER (from files_GN.cpp)

@<TRIPOS>ATOM
      1 S1         44.8496   14.6898    0.8911 S.3         1 MOL      -0.0382
      2 C2         45.5911   15.7987    1.9849 C.2         1 MOL       0.0813
      3 C3         46.4075   15.0353    2.8355 C.2         1 MOL       0.1014
      4 C4         46.4297   13.6570    2.5277 C.2         1 MOL       0.0465
      5 C5         45.6295   13.2620    1.4450 C.2         1 MOL       0.0450
      6 C6         45.3814   17.1790    1.9370 C.2         1 MOL       0.0555
      7 O7         46.3974   18.0547    2.0922 O.co2       1 MOL      -0.5699
      8 O8         44.1643   17.6827    1.6230 O.co2       1 MOL      -0.5699
      9 C9         45.4495   11.9673    0.8943 C.ar        1 MOL      -0.0166
     10 C10        46.5198   11.0405    0.7959 C.ar        1 MOL      -0.0362
     11 C11        46.3008    9.7080    0.3748 C.ar        1 MOL       0.0383
     12 C12        44.9903    9.3251    0.0028 C.ar        1 MOL      -0.0440
     13 C13        43.9459   10.2627    0.0040 C.ar        1 MOL      -0.0722
     14 C14        44.1674   11.5710    0.4509 C.ar        1 MOL      -0.0655
     15 BR19       47.3725   12.4609    3.5955 Br          1 MOL      -0.0668
     16 O20        47.1717   15.4887    3.8839 O.3         1 MOL      -0.3141
     17 C21        46.6298   16.4308    4.8388 C.3         1 MOL       0.1195
     18 C22        45.3282   16.0927    5.4381 C.2         1 MOL       0.0648
     19 O25        44.2709   16.9281    5.2797 O.co2       1 MOL      -0.5663
     20 O26        45.1841   14.9992    6.2287 O.co2       1 MOL      -0.5663
     21 N29        47.2523    8.7461    0.2497 N.pl3       1 MOL      -0.3201
     22 C30        48.6590    8.8914   -0.0220 C.3         1 MOL       0.0379
     23 C31        49.5614    9.2477    1.2054 C.3         1 MOL      -0.0135
     24 C32        49.8319    8.0322    2.1350 C.3         1 MOL       0.0314
     25 N33        50.2256    6.8739    1.3724 N.am        1 MOL      -0.2365
     26 C34        49.3187    6.4244    0.3481 C.3         1 MOL       0.0314
     27 C35        49.1487    7.5714   -0.6932 C.3         1 MOL      -0.0135
     28 S46        51.7671    6.1756    1.4811 S.o2        1 MOL       0.0512
     29 O47        51.6249    4.7949    2.2674 O.2         1 MOL      -0.1532
     30 O48        52.7425    7.0720    2.3703 O.2         1 MOL      -0.1532
     31 C49        52.6188    5.9274   -0.0989 C.3         1 MOL       0.1181
     32 C50        53.5729    4.7895   -0.0693 C.ar        1 MOL      -0.0204
     33 C53        53.4298    3.6906   -0.9556 C.ar        1 MOL      -0.0587
     34 C54        54.3221    2.6009   -0.9059 C.ar        1 MOL      -0.0685
     35 C55        55.3759    2.5991    0.0239 C.ar        1 MOL      -0.0687
     36 C56        55.5420    3.6879    0.8966 C.ar        1 MOL      -0.0685
     37 C57        54.6513    4.7763    0.8485 C.ar        1 MOL      -0.0587
     38 H1         47.4673   11.3393    1.0468 H           1 MOL       0.0516
     39 H2         44.7932    8.3716   -0.3149 H           1 MOL       0.0521
     40 H3         43.0230    9.9757   -0.3274 H           1 MOL       0.0585
     41 H4         43.3782   12.2283    0.4712 H           1 MOL       0.0520
     42 H5         46.5651   17.4169    4.3737 H           1 MOL       0.0780
     43 H6         47.3579   16.5059    5.6519 H           1 MOL       0.0780
     44 H7         46.9029    7.8512    0.1015 H           1 MOL       0.1756
     45 H8         48.7703    9.6924   -0.7640 H           1 MOL       0.0548
     46 H9         49.1137   10.0472    1.7924 H           1 MOL       0.0303
     47 H10        50.5209    9.6086    0.8322 H           1 MOL       0.0303
     48 H11        48.9152    7.7953    2.6808 H           1 MOL       0.0479
     49 H12        50.5799    8.3081    2.8800 H           1 MOL       0.0479
     50 H13        48.3487    6.1928    0.7947 H           1 MOL       0.0479
     51 H14        49.6549    5.5141   -0.1535 H           1 MOL       0.0479
     52 H15        50.1134    7.7512   -1.1803 H           1 MOL       0.0303
     53 H16        48.4464    7.2495   -1.4717 H           1 MOL       0.0303
     54 H17        53.1419    6.8460   -0.3731 H           1 MOL       0.0682
     55 H18        51.8572    5.7543   -0.8569 H           1 MOL       0.0682
     56 H19        52.6660    3.6679   -1.6340 H           1 MOL       0.0557
     57 H20        54.2008    1.8124   -1.5436 H           1 MOL       0.0599
     58 H21        56.0186    1.8074    0.0637 H           1 MOL       0.0559
     59 H22        56.3135    3.6907    1.5689 H           1 MOL       0.0599
     60 H23        54.7895    5.5642    1.4896 H           1 MOL       0.0557
@<TRIPOS>BOND
     1     1     2   1
     2     1     5   1
     3     2     3   2
     4     2     6   1
     5     3     4   1
     6     3    16   1
     7     4     5   2
     8     4    15   1
     9     5     9   1
    10     6     7  ar
    11     6     8  ar
    12     9    10  ar
    13     9    14  ar
    14    10    11  ar
    15    11    12  ar
    16    11    21   1
    17    12    13  ar
    18    13    14  ar
    19    16    17   1
    20    17    18   1
    21    18    19  ar
    22    18    20  ar
    23    21    22   1
    24    22    23   1
    25    22    27   1
    26    23    24   1
    27    24    25   1
    28    25    26   1
    29    25    28  am
    30    26    27   1
    31    28    29   2
    32    28    30   2
    33    28    31   1
    34    31    32   1
    35    32    33  ar
    36    32    37  ar
    37    33    34  ar
    38    34    35  ar
    39    35    36  ar
    40    36    37  ar
    41    10    38   1
    42    12    39   1
    43    13    40   1
    44    14    41   1
    45    17    42   1
    46    17    43   1
    47    21    44   1
    48    22    45   1
    49    23    46   1
    50    23    47   1
    51    24    48   1
    52    24    49   1
    53    26    50   1
    54    26    51   1
    55    27    52   1
    56    27    53   1
    57    31    54   1
    58    31    55   1
    59    33    56   1
    60    34    57   1
    61    35    58   1
    62    36    59   1
    63    37    60   1
@<TRIPOS>SUBSTRUCTURE
     1  MOL      2

