@<TRIPOS>MOLECULE
2qbp_ligand_057
    60    63
SMALL
GAST_HUCK
****
This file was generated by PARSER (from files_GN.cpp)

@<TRIPOS>ATOM
      1 S1         47.1236   13.8067    3.5771 S.3         1 MOL      -0.0382
      2 C2         46.9410   15.5134    3.6259 C.2         1 MOL       0.0813
      3 C3         46.1461   15.8770    2.5316 C.2         1 MOL       0.1014
      4 C4         45.7380   14.7832    1.7351 C.2         1 MOL       0.0465
      5 C5         46.1967   13.5256    2.1559 C.2         1 MOL       0.0450
      6 C6         47.5089   16.2934    4.6319 C.2         1 MOL       0.0555
      7 O7         48.8584   16.3578    4.7171 O.co2       1 MOL      -0.5699
      8 O8         46.8206   16.4066    5.7917 O.co2       1 MOL      -0.5699
      9 C9         45.9611   12.2375    1.6301 C.ar        1 MOL      -0.0166
     10 C10        47.0404   11.3293    1.5304 C.ar        1 MOL      -0.0362
     11 C11        46.8275    9.9703    1.2311 C.ar        1 MOL       0.0383
     12 C12        45.5156    9.5271    0.9523 C.ar        1 MOL      -0.0440
     13 C13        44.4452   10.4377    0.9545 C.ar        1 MOL      -0.0722
     14 C14        44.6596   11.7823    1.3132 C.ar        1 MOL      -0.0655
     15 BR19       44.7484   15.0328    0.1681 Br          1 MOL      -0.0668
     16 O20        45.7417   17.1357    2.1781 O.3         1 MOL      -0.3141
     17 C21        45.1302   18.0020    3.1532 C.3         1 MOL       0.1195
     18 C22        44.3872   17.3205    4.2345 C.2         1 MOL       0.0648
     19 O25        44.4796   17.8130    5.4892 O.co2       1 MOL      -0.5663
     20 O26        44.0727   16.0097    4.1387 O.co2       1 MOL      -0.5663
     21 N29        47.8998    9.1449    1.3046 N.pl3       1 MOL      -0.3201
     22 C30        48.0102    8.1368    2.3284 C.3         1 MOL       0.0379
     23 C31        48.0215    6.6878    1.7685 C.3         1 MOL      -0.0135
     24 C32        49.3350    6.3502    1.0162 C.3         1 MOL       0.0314
     25 N33        50.5162    6.7467    1.7461 N.am        1 MOL      -0.2365
     26 C34        50.5936    8.0747    2.3006 C.3         1 MOL       0.0314
     27 C35        49.3195    8.4099    3.1242 C.3         1 MOL      -0.0135
     28 S46        51.9246    5.8360    1.5323 S.o2        1 MOL       0.0512
     29 O47        51.7525    4.5242    2.4169 O.2         1 MOL      -0.1532
     30 O48        53.2191    6.5618    2.1127 O.2         1 MOL      -0.1532
     31 C49        52.2902    5.3279   -0.1634 C.3         1 MOL       0.1181
     32 C50        52.8743    6.4231   -0.9803 C.ar        1 MOL      -0.0204
     33 C53        54.2458    6.4078   -1.3304 C.ar        1 MOL      -0.0587
     34 C54        54.7899    7.4081   -2.1571 C.ar        1 MOL      -0.0685
     35 C55        53.9671    8.4356   -2.6533 C.ar        1 MOL      -0.0687
     36 C56        52.6045    8.4708   -2.3090 C.ar        1 MOL      -0.0685
     37 C57        52.0645    7.4753   -1.4735 C.ar        1 MOL      -0.0587
     38 H1         47.9882   11.6335    1.7700 H           1 MOL       0.0516
     39 H2         45.3361    8.5427    0.7263 H           1 MOL       0.0521
     40 H3         43.4972   10.1157    0.7350 H           1 MOL       0.0585
     41 H4         43.8527   12.4054    1.3905 H           1 MOL       0.0520
     42 H5         44.4105   18.6347    2.6126 H           1 MOL       0.0780
     43 H6         45.8878   18.6711    3.5724 H           1 MOL       0.0780
     44 H7         48.7443    9.5770    1.0941 H           1 MOL       0.1756
     45 H8         47.1729    8.2080    3.0384 H           1 MOL       0.0548
     46 H9         47.1712    6.5377    1.0989 H           1 MOL       0.0303
     47 H10        47.9116    5.9853    2.5993 H           1 MOL       0.0303
     48 H11        49.3257    6.8585    0.0502 H           1 MOL       0.0479
     49 H12        49.3303    5.2714    0.8217 H           1 MOL       0.0479
     50 H13        50.7177    8.7891    1.4873 H           1 MOL       0.0479
     51 H14        51.4485    8.1887    2.9690 H           1 MOL       0.0479
     52 H15        49.3213    7.8057    4.0376 H           1 MOL       0.0303
     53 H16        49.3562    9.4616    3.4267 H           1 MOL       0.0303
     54 H17        51.3777    4.9604   -0.6334 H           1 MOL       0.0682
     55 H18        52.9785    4.4843   -0.1005 H           1 MOL       0.0682
     56 H19        54.8596    5.6632   -0.9903 H           1 MOL       0.0557
     57 H20        55.7803    7.3815   -2.4085 H           1 MOL       0.0599
     58 H21        54.3597    9.1544   -3.2661 H           1 MOL       0.0559
     59 H22        52.0052    9.2134   -2.6727 H           1 MOL       0.0599
     60 H23        51.0706    7.5102   -1.2494 H           1 MOL       0.0557
@<TRIPOS>BOND
     1     1     2   1
     2     1     5   1
     3     2     3   2
     4     2     6   1
     5     3     4   1
     6     3    16   1
     7     4     5   2
     8     4    15   1
     9     5     9   1
    10     6     7  ar
    11     6     8  ar
    12     9    10  ar
    13     9    14  ar
    14    10    11  ar
    15    11    12  ar
    16    11    21   1
    17    12    13  ar
    18    13    14  ar
    19    16    17   1
    20    17    18   1
    21    18    19  ar
    22    18    20  ar
    23    21    22   1
    24    22    23   1
    25    22    27   1
    26    23    24   1
    27    24    25   1
    28    25    26   1
    29    25    28  am
    30    26    27   1
    31    28    29   2
    32    28    30   2
    33    28    31   1
    34    31    32   1
    35    32    33  ar
    36    32    37  ar
    37    33    34  ar
    38    34    35  ar
    39    35    36  ar
    40    36    37  ar
    41    10    38   1
    42    12    39   1
    43    13    40   1
    44    14    41   1
    45    17    42   1
    46    17    43   1
    47    21    44   1
    48    22    45   1
    49    23    46   1
    50    23    47   1
    51    24    48   1
    52    24    49   1
    53    26    50   1
    54    26    51   1
    55    27    52   1
    56    27    53   1
    57    31    54   1
    58    31    55   1
    59    33    56   1
    60    34    57   1
    61    35    58   1
    62    36    59   1
    63    37    60   1
@<TRIPOS>SUBSTRUCTURE
     1  MOL      2

