@<TRIPOS>MOLECULE
2qbp_ligand_058
    60    63
SMALL
GAST_HUCK
****
This file was generated by PARSER (from files_GN.cpp)

@<TRIPOS>ATOM
      1 S1         46.5984   11.9874    3.0260 S.3         1 MOL      -0.0382
      2 C2         46.3039   13.5970    3.5440 C.2         1 MOL       0.0813
      3 C3         45.7258   14.2875    2.4686 C.2         1 MOL       0.1014
      4 C4         45.5087   13.4956    1.3240 C.2         1 MOL       0.0465
      5 C5         45.9429   12.1635    1.4452 C.2         1 MOL       0.0450
      6 C6         46.6264   14.0976    4.8101 C.2         1 MOL       0.0555
      7 O7         45.6543   14.0518    5.7494 O.co2       1 MOL      -0.5699
      8 O8         47.4915   15.1337    4.8849 O.co2       1 MOL      -0.5699
      9 C9         45.9881   11.1782    0.4374 C.ar        1 MOL      -0.0166
     10 C10        44.7920   10.6416   -0.0981 C.ar        1 MOL      -0.0362
     11 C11        44.8056    9.8464   -1.2611 C.ar        1 MOL       0.0383
     12 C12        46.0516    9.5285   -1.8561 C.ar        1 MOL      -0.0440
     13 C13        47.2540    9.9767   -1.2743 C.ar        1 MOL      -0.0722
     14 C14        47.2217   10.7948   -0.1356 C.ar        1 MOL      -0.0655
     15 BR19       44.8299   14.2150   -0.2527 Br          1 MOL      -0.0668
     16 O20        45.5491   15.6438    2.5160 O.3         1 MOL      -0.3141
     17 C21        44.2417   16.0935    2.8995 C.3         1 MOL       0.1195
     18 C22        44.4194   17.2747    3.7492 C.2         1 MOL       0.0648
     19 O25        43.9430   17.3059    5.0132 O.co2       1 MOL      -0.5663
     20 O26        45.1414   18.3261    3.3070 O.co2       1 MOL      -0.5663
     21 N29        43.5922    9.5162   -1.7843 N.pl3       1 MOL      -0.3201
     22 C30        43.2538    9.4384   -3.1748 C.3         1 MOL       0.0379
     23 C31        43.2674    7.9850   -3.7341 C.3         1 MOL      -0.0135
     24 C32        42.0387    7.1558   -3.2853 C.3         1 MOL       0.0314
     25 N33        40.8188    7.8949   -3.4826 N.am        1 MOL      -0.2365
     26 C34        40.7081    9.1901   -2.8662 C.3         1 MOL       0.0314
     27 C35        41.8568   10.0958   -3.3805 C.3         1 MOL      -0.0135
     28 S46        39.6152    7.3801   -4.5573 S.o2        1 MOL       0.0512
     29 O47        40.0310    6.0193   -5.2698 O.2         1 MOL      -0.1532
     30 O48        39.4646    8.4426   -5.7312 O.2         1 MOL      -0.1532
     31 C49        38.0372    7.1433   -3.7074 C.3         1 MOL       0.1181
     32 C50        37.0906    6.3650   -4.5422 C.ar        1 MOL      -0.0204
     33 C53        36.2170    7.0234   -5.4395 C.ar        1 MOL      -0.0587
     34 C54        35.3334    6.2856   -6.2485 C.ar        1 MOL      -0.0685
     35 C55        35.3150    4.8815   -6.1734 C.ar        1 MOL      -0.0687
     36 C56        36.1789    4.2146   -5.2866 C.ar        1 MOL      -0.0685
     37 C57        37.0618    4.9516   -4.4763 C.ar        1 MOL      -0.0587
     38 H1         43.8930   10.8974    0.3279 H           1 MOL       0.0516
     39 H2         46.1088    8.9867   -2.7176 H           1 MOL       0.0521
     40 H3         48.1469    9.7549   -1.7199 H           1 MOL       0.0585
     41 H4         48.1023   11.1673    0.2319 H           1 MOL       0.0520
     42 H5         43.6781   15.3312    3.4426 H           1 MOL       0.0780
     43 H6         43.6719   16.3812    2.0158 H           1 MOL       0.0780
     44 H7         42.8422    9.5910   -1.1736 H           1 MOL       0.1756
     45 H8         43.9716   10.0383   -3.7451 H           1 MOL       0.0548
     46 H9         44.1808    7.4732   -3.4231 H           1 MOL       0.0303
     47 H10        43.2742    8.0357   -4.8268 H           1 MOL       0.0303
     48 H11        42.1333    6.9149   -2.2275 H           1 MOL       0.0479
     49 H12        42.0468    6.2162   -3.8323 H           1 MOL       0.0479
     50 H13        40.7674    9.0744   -1.7778 H           1 MOL       0.0479
     51 H14        39.7514    9.6754   -3.0836 H           1 MOL       0.0479
     52 H15        41.7074   10.2763   -4.4476 H           1 MOL       0.0303
     53 H16        41.8068   11.0609   -2.8707 H           1 MOL       0.0303
     54 H17        37.6134    8.1210   -3.4632 H           1 MOL       0.0682
     55 H18        38.2430    6.6344   -2.7641 H           1 MOL       0.0682
     56 H19        36.2199    8.0444   -5.5085 H           1 MOL       0.0557
     57 H20        34.7048    6.7709   -6.8932 H           1 MOL       0.0599
     58 H21        34.6762    4.3461   -6.7649 H           1 MOL       0.0559
     59 H22        36.1686    3.1944   -5.2346 H           1 MOL       0.0599
     60 H23        37.6931    4.4487   -3.8468 H           1 MOL       0.0557
@<TRIPOS>BOND
     1     1     2   1
     2     1     5   1
     3     2     3   2
     4     2     6   1
     5     3     4   1
     6     3    16   1
     7     4     5   2
     8     4    15   1
     9     5     9   1
    10     6     7  ar
    11     6     8  ar
    12     9    10  ar
    13     9    14  ar
    14    10    11  ar
    15    11    12  ar
    16    11    21   1
    17    12    13  ar
    18    13    14  ar
    19    16    17   1
    20    17    18   1
    21    18    19  ar
    22    18    20  ar
    23    21    22   1
    24    22    23   1
    25    22    27   1
    26    23    24   1
    27    24    25   1
    28    25    26   1
    29    25    28  am
    30    26    27   1
    31    28    29   2
    32    28    30   2
    33    28    31   1
    34    31    32   1
    35    32    33  ar
    36    32    37  ar
    37    33    34  ar
    38    34    35  ar
    39    35    36  ar
    40    36    37  ar
    41    10    38   1
    42    12    39   1
    43    13    40   1
    44    14    41   1
    45    17    42   1
    46    17    43   1
    47    21    44   1
    48    22    45   1
    49    23    46   1
    50    23    47   1
    51    24    48   1
    52    24    49   1
    53    26    50   1
    54    26    51   1
    55    27    52   1
    56    27    53   1
    57    31    54   1
    58    31    55   1
    59    33    56   1
    60    34    57   1
    61    35    58   1
    62    36    59   1
    63    37    60   1
@<TRIPOS>SUBSTRUCTURE
     1  MOL      2

