@<TRIPOS>MOLECULE
2qbp_ligand_066
    60    63
SMALL
GAST_HUCK
****
This file was generated by PARSER (from files_GN.cpp)

@<TRIPOS>ATOM
      1 S1         46.3540   13.9744    3.7818 S.3         1 MOL      -0.0382
      2 C2         45.5346   15.4566    4.0668 C.2         1 MOL       0.0813
      3 C3         44.8846   15.8052    2.8789 C.2         1 MOL       0.1014
      4 C4         45.0127   14.8536    1.8440 C.2         1 MOL       0.0465
      5 C5         45.8058   13.7395    2.1654 C.2         1 MOL       0.0450
      6 C6         45.5331   16.1742    5.2696 C.2         1 MOL       0.0555
      7 O7         44.3693   16.6371    5.7839 O.co2       1 MOL      -0.5699
      8 O8         46.6944   16.5764    5.8325 O.co2       1 MOL      -0.5699
      9 C9         46.0816   12.5950    1.3821 C.ar        1 MOL      -0.0166
     10 C10        45.0287   11.8735    0.7727 C.ar        1 MOL      -0.0362
     11 C11        45.2688   10.7319   -0.0313 C.ar        1 MOL       0.0383
     12 C12        46.6025   10.2907   -0.1810 C.ar        1 MOL      -0.0440
     13 C13        47.6619   10.9728    0.4445 C.ar        1 MOL      -0.0722
     14 C14        47.4028   12.1197    1.2199 C.ar        1 MOL      -0.0655
     15 BR19       44.2490   15.1399    0.1665 Br          1 MOL      -0.0668
     16 O20        44.2363   17.0034    2.7506 O.3         1 MOL      -0.3141
     17 C21        45.0301   18.0777    2.1914 C.3         1 MOL       0.1195
     18 C22        46.4028   18.2128    2.7224 C.2         1 MOL       0.0648
     19 O25        46.6001   18.9006    3.8706 O.co2       1 MOL      -0.5663
     20 O26        47.3419   17.3029    2.3707 O.co2       1 MOL      -0.5663
     21 N29        44.1772   10.1443   -0.5882 N.pl3       1 MOL      -0.3201
     22 C30        44.1104    9.0346   -1.4925 C.3         1 MOL       0.0379
     23 C31        42.6120    8.6921   -1.7499 C.3         1 MOL      -0.0135
     24 C32        42.4438    7.5933   -2.8328 C.3         1 MOL       0.0314
     25 N33        43.1722    7.9634   -4.0217 N.am        1 MOL      -0.2365
     26 C34        44.5832    8.2100   -3.8797 C.3         1 MOL       0.0314
     27 C35        44.8227    9.3410   -2.8452 C.3         1 MOL      -0.0135
     28 S46        42.4130    8.0832   -5.5337 S.o2        1 MOL       0.0512
     29 O47        40.8925    8.4890   -5.2983 O.2         1 MOL      -0.1532
     30 O48        42.3709    6.6602   -6.2424 O.2         1 MOL      -0.1532
     31 C49        43.0169    9.4000   -6.6267 C.3         1 MOL       0.1181
     32 C50        44.0065    8.9216   -7.6282 C.ar        1 MOL      -0.0204
     33 C53        43.5694    8.2363   -8.7879 C.ar        1 MOL      -0.0587
     34 C54        44.4936    7.7804   -9.7457 C.ar        1 MOL      -0.0685
     35 C55        45.8668    8.0151   -9.5674 C.ar        1 MOL      -0.0687
     36 C56        46.3160    8.7131   -8.4333 C.ar        1 MOL      -0.0685
     37 C57        45.3907    9.1723   -7.4769 C.ar        1 MOL      -0.0587
     38 H1         44.0591   12.1737    0.9259 H           1 MOL       0.0516
     39 H2         46.8183    9.4588   -0.7287 H           1 MOL       0.0521
     40 H3         48.6211   10.6429    0.3335 H           1 MOL       0.0585
     41 H4         48.1903   12.6112    1.6529 H           1 MOL       0.0520
     42 H5         44.5100   19.0110    2.4134 H           1 MOL       0.0780
     43 H6         45.0775   17.9874    1.1025 H           1 MOL       0.0780
     44 H7         43.3238   10.5243   -0.3320 H           1 MOL       0.1756
     45 H8         44.5769    8.1620   -1.0232 H           1 MOL       0.0548
     46 H9         42.0788    9.5873   -2.0808 H           1 MOL       0.0303
     47 H10        42.1469    8.3559   -0.8200 H           1 MOL       0.0303
     48 H11        41.3777    7.4468   -3.0218 H           1 MOL       0.0479
     49 H12        42.8313    6.6411   -2.4579 H           1 MOL       0.0479
     50 H13        45.0581    8.4901   -4.8223 H           1 MOL       0.0479
     51 H14        45.0765    7.2907   -3.5420 H           1 MOL       0.0479
     52 H15        45.8988    9.4556   -2.6897 H           1 MOL       0.0303
     53 H16        44.4420   10.2801   -3.2562 H           1 MOL       0.0303
     54 H17        43.4348   10.1855   -5.9953 H           1 MOL       0.0682
     55 H18        42.1688    9.8370   -7.1586 H           1 MOL       0.0682
     56 H19        42.5727    8.0639   -8.9415 H           1 MOL       0.0557
     57 H20        44.1627    7.2803  -10.5777 H           1 MOL       0.0599
     58 H21        46.5375    7.6813  -10.2624 H           1 MOL       0.0559
     59 H22        47.3134    8.8898   -8.3054 H           1 MOL       0.0599
     60 H23        45.7393    9.6825   -6.6605 H           1 MOL       0.0557
@<TRIPOS>BOND
     1     1     2   1
     2     1     5   1
     3     2     3   2
     4     2     6   1
     5     3     4   1
     6     3    16   1
     7     4     5   2
     8     4    15   1
     9     5     9   1
    10     6     7  ar
    11     6     8  ar
    12     9    10  ar
    13     9    14  ar
    14    10    11  ar
    15    11    12  ar
    16    11    21   1
    17    12    13  ar
    18    13    14  ar
    19    16    17   1
    20    17    18   1
    21    18    19  ar
    22    18    20  ar
    23    21    22   1
    24    22    23   1
    25    22    27   1
    26    23    24   1
    27    24    25   1
    28    25    26   1
    29    25    28  am
    30    26    27   1
    31    28    29   2
    32    28    30   2
    33    28    31   1
    34    31    32   1
    35    32    33  ar
    36    32    37  ar
    37    33    34  ar
    38    34    35  ar
    39    35    36  ar
    40    36    37  ar
    41    10    38   1
    42    12    39   1
    43    13    40   1
    44    14    41   1
    45    17    42   1
    46    17    43   1
    47    21    44   1
    48    22    45   1
    49    23    46   1
    50    23    47   1
    51    24    48   1
    52    24    49   1
    53    26    50   1
    54    26    51   1
    55    27    52   1
    56    27    53   1
    57    31    54   1
    58    31    55   1
    59    33    56   1
    60    34    57   1
    61    35    58   1
    62    36    59   1
    63    37    60   1
@<TRIPOS>SUBSTRUCTURE
     1  MOL      2

