@<TRIPOS>MOLECULE
2qbp_ligand_032
    60    63
SMALL
GAST_HUCK
****
This file was generated by PARSER (from files_GN.cpp)

@<TRIPOS>ATOM
      1 S1         44.0335   14.8679    1.9203 S.3         1 MOL      -0.0382
      2 C2         44.7343   15.8632    3.1279 C.2         1 MOL       0.0813
      3 C3         45.7692   15.1163    3.7040 C.2         1 MOL       0.1014
      4 C4         45.9417   13.8290    3.1481 C.2         1 MOL       0.0465
      5 C5         45.0200   13.4682    2.1346 C.2         1 MOL       0.0450
      6 C6         44.3179   17.1636    3.4364 C.2         1 MOL       0.0555
      7 O7         43.9538   17.4605    4.7043 O.co2       1 MOL      -0.5699
      8 O8         44.0750   18.0604    2.4535 O.co2       1 MOL      -0.5699
      9 C9         44.8653   12.2643    1.3681 C.ar        1 MOL      -0.0166
     10 C10        45.4319   11.0302    1.7695 C.ar        1 MOL      -0.0362
     11 C11        45.3837    9.8722    0.9482 C.ar        1 MOL       0.0383
     12 C12        44.6063    9.9166   -0.2272 C.ar        1 MOL      -0.0440
     13 C13        43.9656   11.0994   -0.6141 C.ar        1 MOL      -0.0722
     14 C14        44.1099   12.2674    0.1603 C.ar        1 MOL      -0.0655
     15 BR19       47.4216   12.8471    3.7126 Br          1 MOL      -0.0668
     16 O20        46.5672   15.5774    4.7162 O.3         1 MOL      -0.3141
     17 C21        47.4795   16.6383    4.3679 C.3         1 MOL       0.1195
     18 C22        46.9810   17.9068    4.9162 C.2         1 MOL       0.0648
     19 O25        46.3462   17.8967    6.1061 O.co2       1 MOL      -0.5663
     20 O26        46.8489   19.0043    4.1363 O.co2       1 MOL      -0.5663
     21 N29        46.0910    8.7366    1.1723 N.pl3       1 MOL      -0.3201
     22 C30        47.2516    8.5235    2.0080 C.3         1 MOL       0.0379
     23 C31        47.8675    7.1350    1.6472 C.3         1 MOL      -0.0135
     24 C32        48.5289    7.1427    0.2373 C.3         1 MOL       0.0314
     25 N33        49.4442    8.2488    0.1137 N.am        1 MOL      -0.2365
     26 C34        48.9773    9.5821    0.4155 C.3         1 MOL       0.0314
     27 C35        48.3641    9.6130    1.8394 C.3         1 MOL      -0.0135
     28 S46        50.9659    8.0660   -0.6059 S.o2        1 MOL       0.0512
     29 O47        50.9989    6.8743   -1.6649 O.2         1 MOL      -0.1532
     30 O48        51.9473    7.5773    0.5464 O.2         1 MOL      -0.1532
     31 C49        51.6078    9.5755   -1.3683 C.3         1 MOL       0.1181
     32 C50        50.6018   10.1976   -2.2662 C.ar        1 MOL      -0.0204
     33 C53        50.0220   11.4546   -1.9496 C.ar        1 MOL      -0.0587
     34 C54        49.0675   12.0400   -2.7983 C.ar        1 MOL      -0.0685
     35 C55        48.6751   11.3853   -3.9789 C.ar        1 MOL      -0.0687
     36 C56        49.2439   10.1376   -4.3069 C.ar        1 MOL      -0.0685
     37 C57        50.1965    9.5508   -3.4592 C.ar        1 MOL      -0.0587
     38 H1         45.8754   10.9353    2.6815 H           1 MOL       0.0516
     39 H2         44.5320    9.0936   -0.8321 H           1 MOL       0.0521
     40 H3         43.4100   11.1265   -1.4747 H           1 MOL       0.0585
     41 H4         43.6700   13.1188   -0.1911 H           1 MOL       0.0520
     42 H5         47.6690   16.7353    3.2918 H           1 MOL       0.0780
     43 H6         48.4372   16.4263    4.8528 H           1 MOL       0.0780
     44 H7         45.8229    7.9708    0.6315 H           1 MOL       0.1756
     45 H8         46.9332    8.5048    3.0553 H           1 MOL       0.0548
     46 H9         47.0903    6.3654    1.6761 H           1 MOL       0.0303
     47 H10        48.6278    6.8742    2.3905 H           1 MOL       0.0303
     48 H11        47.7582    7.2378   -0.5336 H           1 MOL       0.0479
     49 H12        49.0246    6.1746    0.0955 H           1 MOL       0.0479
     50 H13        48.2156    9.8732   -0.3177 H           1 MOL       0.0479
     51 H14        49.7832   10.3260    0.3785 H           1 MOL       0.0479
     52 H15        49.1683    9.4151    2.5619 H           1 MOL       0.0303
     53 H16        47.9598   10.6096    2.0444 H           1 MOL       0.0303
     54 H17        52.5161    9.3416   -1.9265 H           1 MOL       0.0682
     55 H18        51.8848   10.2509   -0.5591 H           1 MOL       0.0682
     56 H19        50.2883   11.9446   -1.0916 H           1 MOL       0.0557
     57 H20        48.6567   12.9467   -2.5590 H           1 MOL       0.0599
     58 H21        47.9849   11.8127   -4.5963 H           1 MOL       0.0559
     59 H22        48.9582    9.6628   -5.1670 H           1 MOL       0.0599
     60 H23        50.5939    8.6443   -3.7120 H           1 MOL       0.0557
@<TRIPOS>BOND
     1     1     2   1
     2     1     5   1
     3     2     3   2
     4     2     6   1
     5     3     4   1
     6     3    16   1
     7     4     5   2
     8     4    15   1
     9     5     9   1
    10     6     7  ar
    11     6     8  ar
    12     9    10  ar
    13     9    14  ar
    14    10    11  ar
    15    11    12  ar
    16    11    21   1
    17    12    13  ar
    18    13    14  ar
    19    16    17   1
    20    17    18   1
    21    18    19  ar
    22    18    20  ar
    23    21    22   1
    24    22    23   1
    25    22    27   1
    26    23    24   1
    27    24    25   1
    28    25    26   1
    29    25    28  am
    30    26    27   1
    31    28    29   2
    32    28    30   2
    33    28    31   1
    34    31    32   1
    35    32    33  ar
    36    32    37  ar
    37    33    34  ar
    38    34    35  ar
    39    35    36  ar
    40    36    37  ar
    41    10    38   1
    42    12    39   1
    43    13    40   1
    44    14    41   1
    45    17    42   1
    46    17    43   1
    47    21    44   1
    48    22    45   1
    49    23    46   1
    50    23    47   1
    51    24    48   1
    52    24    49   1
    53    26    50   1
    54    26    51   1
    55    27    52   1
    56    27    53   1
    57    31    54   1
    58    31    55   1
    59    33    56   1
    60    34    57   1
    61    35    58   1
    62    36    59   1
    63    37    60   1
@<TRIPOS>SUBSTRUCTURE
     1  MOL      2

