@<TRIPOS>MOLECULE
2qbp_ligand_021
    60    63
SMALL
GAST_HUCK
****
This file was generated by PARSER (from files_GN.cpp)

@<TRIPOS>ATOM
      1 S1         44.7673   17.5430    1.6392 S.3         1 MOL      -0.0382
      2 C2         45.9125   17.2967    2.8891 C.2         1 MOL       0.0813
      3 C3         46.4722   16.0255    2.6837 C.2         1 MOL       0.1014
      4 C4         45.9284   15.3354    1.5751 C.2         1 MOL       0.0465
      5 C5         44.9777   16.0430    0.8085 C.2         1 MOL       0.0450
      6 C6         46.0166   18.1137    4.0174 C.2         1 MOL       0.0555
      7 O7         47.2225   18.6211    4.3946 O.co2       1 MOL      -0.5699
      8 O8         45.1023   17.9278    4.9942 O.co2       1 MOL      -0.5699
      9 C9         44.2566   15.6405   -0.3514 C.ar        1 MOL      -0.0166
     10 C10        43.0236   16.2535   -0.6839 C.ar        1 MOL      -0.0362
     11 C11        42.1696   15.7326   -1.6876 C.ar        1 MOL       0.0383
     12 C12        42.6034   14.6065   -2.4178 C.ar        1 MOL      -0.0440
     13 C13        43.8748   14.0567   -2.2053 C.ar        1 MOL      -0.0722
     14 C14        44.7021   14.5834   -1.1922 C.ar        1 MOL      -0.0655
     15 BR19       46.3360   13.5255    1.3567 Br          1 MOL      -0.0668
     16 O20        47.3035   15.3666    3.5601 O.3         1 MOL      -0.3141
     17 C21        46.8618   15.1518    4.9219 C.3         1 MOL       0.1195
     18 C22        45.4226   14.8778    5.1217 C.2         1 MOL       0.0648
     19 O25        44.5260   15.5796    4.3910 O.co2       1 MOL      -0.5663
     20 O26        45.0225   14.5514    6.3654 O.co2       1 MOL      -0.5663
     21 N29        40.9521   16.3182   -1.8382 N.pl3       1 MOL      -0.3201
     22 C30        39.6883   15.6337   -1.9296 C.3         1 MOL       0.0379
     23 C31        38.6519   16.5313   -1.2055 C.3         1 MOL      -0.0135
     24 C32        37.2554   15.8764   -1.2014 C.3         1 MOL       0.0314
     25 N33        36.8390   15.5481   -2.5484 N.am        1 MOL      -0.2365
     26 C34        37.7409   14.7581   -3.3528 C.3         1 MOL       0.0314
     27 C35        39.1836   15.3310   -3.3777 C.3         1 MOL      -0.0135
     28 S46        35.1762   15.5428   -2.9008 S.o2        1 MOL       0.0512
     29 O47        34.5291   14.1619   -2.4417 O.2         1 MOL      -0.1532
     30 O48        34.9842   15.6759   -4.4728 O.2         1 MOL      -0.1532
     31 C49        34.2657   16.9418   -2.1735 C.3         1 MOL       0.1181
     32 C50        33.0004   17.2346   -2.8990 C.ar        1 MOL      -0.0204
     33 C53        32.8432   18.4422   -3.6226 C.ar        1 MOL      -0.0587
     34 C54        31.6390   18.7229   -4.3026 C.ar        1 MOL      -0.0685
     35 C55        30.5779   17.8007   -4.2685 C.ar        1 MOL      -0.0687
     36 C56        30.7160   16.6050   -3.5431 C.ar        1 MOL      -0.0685
     37 C57        31.9176   16.3241   -2.8641 C.ar        1 MOL      -0.0587
     38 H1         42.6969   17.0396   -0.1136 H           1 MOL       0.0516
     39 H2         42.0226   14.2034   -3.1513 H           1 MOL       0.0521
     40 H3         44.2121   13.2824   -2.7733 H           1 MOL       0.0585
     41 H4         45.6255   14.1737   -1.0564 H           1 MOL       0.0520
     42 H5         47.1382   15.9876    5.5530 H           1 MOL       0.0780
     43 H6         47.4388   14.2987    5.2781 H           1 MOL       0.0780
     44 H7         40.9012   17.2144   -1.4636 H           1 MOL       0.1756
     45 H8         39.7480   14.6864   -1.3747 H           1 MOL       0.0548
     46 H9         38.5803   17.4996   -1.7152 H           1 MOL       0.0303
     47 H10        38.9598   16.7183   -0.1683 H           1 MOL       0.0303
     48 H11        36.5566   16.5791   -0.7319 H           1 MOL       0.0479
     49 H12        37.2716   14.9651   -0.5906 H           1 MOL       0.0479
     50 H13        37.3993   14.6945   -4.3967 H           1 MOL       0.0479
     51 H14        37.7665   13.7341   -2.9529 H           1 MOL       0.0479
     52 H15        39.8522   14.6057   -3.8567 H           1 MOL       0.0303
     53 H16        39.2040   16.2510   -3.9599 H           1 MOL       0.0303
     54 H17        34.9347   17.7998   -2.1799 H           1 MOL       0.0682
     55 H18        34.0364   16.7093   -1.1367 H           1 MOL       0.0682
     56 H19        33.5991   19.1255   -3.6646 H           1 MOL       0.0557
     57 H20        31.5402   19.5935   -4.8267 H           1 MOL       0.0599
     58 H21        29.7046   18.0055   -4.7579 H           1 MOL       0.0559
     59 H22        29.9416   15.9341   -3.5131 H           1 MOL       0.0599
     60 H23        31.9922   15.4508   -2.3380 H           1 MOL       0.0557
@<TRIPOS>BOND
     1     1     2   1
     2     1     5   1
     3     2     3   2
     4     2     6   1
     5     3     4   1
     6     3    16   1
     7     4     5   2
     8     4    15   1
     9     5     9   1
    10     6     7  ar
    11     6     8  ar
    12     9    10  ar
    13     9    14  ar
    14    10    11  ar
    15    11    12  ar
    16    11    21   1
    17    12    13  ar
    18    13    14  ar
    19    16    17   1
    20    17    18   1
    21    18    19  ar
    22    18    20  ar
    23    21    22   1
    24    22    23   1
    25    22    27   1
    26    23    24   1
    27    24    25   1
    28    25    26   1
    29    25    28  am
    30    26    27   1
    31    28    29   2
    32    28    30   2
    33    28    31   1
    34    31    32   1
    35    32    33  ar
    36    32    37  ar
    37    33    34  ar
    38    34    35  ar
    39    35    36  ar
    40    36    37  ar
    41    10    38   1
    42    12    39   1
    43    13    40   1
    44    14    41   1
    45    17    42   1
    46    17    43   1
    47    21    44   1
    48    22    45   1
    49    23    46   1
    50    23    47   1
    51    24    48   1
    52    24    49   1
    53    26    50   1
    54    26    51   1
    55    27    52   1
    56    27    53   1
    57    31    54   1
    58    31    55   1
    59    33    56   1
    60    34    57   1
    61    35    58   1
    62    36    59   1
    63    37    60   1
@<TRIPOS>SUBSTRUCTURE
     1  MOL      2

