@<TRIPOS>MOLECULE
2qbp_ligand_035
    60    63
SMALL
GAST_HUCK
****
This file was generated by PARSER (from files_GN.cpp)

@<TRIPOS>ATOM
      1 S1         44.9844   14.5512   -0.1420 S.3         1 MOL      -0.0382
      2 C2         44.5365   15.5177    1.2028 C.2         1 MOL       0.0813
      3 C3         45.0384   14.8740    2.3469 C.2         1 MOL       0.1014
      4 C4         45.7497   13.6823    2.0966 C.2         1 MOL       0.0465
      5 C5         45.8307   13.3402    0.7405 C.2         1 MOL       0.0450
      6 C6         43.8257   16.7245    1.0974 C.2         1 MOL       0.0555
      7 O7         44.0210   17.7228    1.9806 O.co2       1 MOL      -0.5699
      8 O8         43.1140   17.0108   -0.0244 O.co2       1 MOL      -0.5699
      9 C9         46.4987   12.2539    0.1444 C.ar        1 MOL      -0.0166
     10 C10        45.8187   11.4201   -0.7696 C.ar        1 MOL      -0.0362
     11 C11        46.4800   10.3500   -1.4180 C.ar        1 MOL       0.0383
     12 C12        47.8564   10.1517   -1.1572 C.ar        1 MOL      -0.0440
     13 C13        48.5404   10.9614   -0.2307 C.ar        1 MOL      -0.0722
     14 C14        47.8654   12.0162    0.4114 C.ar        1 MOL      -0.0655
     15 BR19       46.4249   12.6098    3.4675 Br          1 MOL      -0.0668
     16 O20        44.7634   15.3215    3.6072 O.3         1 MOL      -0.3141
     17 C21        45.9050   15.7972    4.3468 C.3         1 MOL       0.1195
     18 C22        45.5347   17.0011    5.1032 C.2         1 MOL       0.0648
     19 O25        44.2741   17.4847    5.1231 O.co2       1 MOL      -0.5663
     20 O26        46.4742   17.6306    5.8439 O.co2       1 MOL      -0.5663
     21 N29        45.8683    9.4778   -2.2637 N.pl3       1 MOL      -0.3201
     22 C30        44.4689    9.4044   -2.5902 C.3         1 MOL       0.0379
     23 C31        44.1641    9.7134   -4.0812 C.3         1 MOL      -0.0135
     24 C32        42.6429    9.5947   -4.3739 C.3         1 MOL       0.0314
     25 N33        42.0622    8.3649   -3.8919 N.am        1 MOL      -0.2365
     26 C34        42.4262    7.8656   -2.5852 C.3         1 MOL       0.0314
     27 C35        43.9420    7.9799   -2.2849 C.3         1 MOL      -0.0135
     28 S46        40.5210    7.9218   -4.4593 S.o2        1 MOL       0.0512
     29 O47        39.7930    9.1315   -5.1919 O.2         1 MOL      -0.1532
     30 O48        39.6249    7.5930   -3.1817 O.2         1 MOL      -0.1532
     31 C49        40.5426    6.5041   -5.5877 C.3         1 MOL       0.1181
     32 C50        41.5251    6.7097   -6.6876 C.ar        1 MOL      -0.0204
     33 C53        42.9140    6.7305   -6.4166 C.ar        1 MOL      -0.0587
     34 C54        43.8488    6.9088   -7.4528 C.ar        1 MOL      -0.0685
     35 C55        43.4058    7.0700   -8.7757 C.ar        1 MOL      -0.0687
     36 C56        42.0269    7.0630   -9.0595 C.ar        1 MOL      -0.0685
     37 C57        41.0930    6.8868   -8.0210 C.ar        1 MOL      -0.0587
     38 H1         44.8246   11.5857   -0.9324 H           1 MOL       0.0516
     39 H2         48.3655    9.3905   -1.6147 H           1 MOL       0.0521
     40 H3         49.5332   10.7950   -0.0355 H           1 MOL       0.0585
     41 H4         48.3780   12.6193    1.0618 H           1 MOL       0.0520
     42 H5         46.7404   16.0584    3.6907 H           1 MOL       0.0780
     43 H6         46.2346   15.0335    5.0446 H           1 MOL       0.0780
     44 H7         46.4280    8.7547   -2.6045 H           1 MOL       0.1756
     45 H8         43.9190   10.1020   -1.9508 H           1 MOL       0.0548
     46 H9         44.7086    9.0128   -4.7167 H           1 MOL       0.0303
     47 H10        44.4907   10.7232   -4.3411 H           1 MOL       0.0303
     48 H11        42.5174    9.6823   -5.4541 H           1 MOL       0.0479
     49 H12        42.1313   10.4398   -3.9093 H           1 MOL       0.0479
     50 H13        42.1558    6.8123   -2.4862 H           1 MOL       0.0479
     51 H14        41.8695    8.4141   -1.8256 H           1 MOL       0.0479
     52 H15        44.1137    7.7503   -1.2302 H           1 MOL       0.0303
     53 H16        44.4817    7.2391   -2.8856 H           1 MOL       0.0303
     54 H17        39.5427    6.3669   -5.9968 H           1 MOL       0.0682
     55 H18        40.7734    5.6099   -5.0052 H           1 MOL       0.0682
     56 H19        43.2594    6.6227   -5.4597 H           1 MOL       0.0557
     57 H20        44.8530    6.9227   -7.2391 H           1 MOL       0.0599
     58 H21        44.0814    7.1927   -9.5360 H           1 MOL       0.0559
     59 H22        41.7052    7.1925  -10.0252 H           1 MOL       0.0599
     60 H23        40.0925    6.8905   -8.2457 H           1 MOL       0.0557
@<TRIPOS>BOND
     1     1     2   1
     2     1     5   1
     3     2     3   2
     4     2     6   1
     5     3     4   1
     6     3    16   1
     7     4     5   2
     8     4    15   1
     9     5     9   1
    10     6     7  ar
    11     6     8  ar
    12     9    10  ar
    13     9    14  ar
    14    10    11  ar
    15    11    12  ar
    16    11    21   1
    17    12    13  ar
    18    13    14  ar
    19    16    17   1
    20    17    18   1
    21    18    19  ar
    22    18    20  ar
    23    21    22   1
    24    22    23   1
    25    22    27   1
    26    23    24   1
    27    24    25   1
    28    25    26   1
    29    25    28  am
    30    26    27   1
    31    28    29   2
    32    28    30   2
    33    28    31   1
    34    31    32   1
    35    32    33  ar
    36    32    37  ar
    37    33    34  ar
    38    34    35  ar
    39    35    36  ar
    40    36    37  ar
    41    10    38   1
    42    12    39   1
    43    13    40   1
    44    14    41   1
    45    17    42   1
    46    17    43   1
    47    21    44   1
    48    22    45   1
    49    23    46   1
    50    23    47   1
    51    24    48   1
    52    24    49   1
    53    26    50   1
    54    26    51   1
    55    27    52   1
    56    27    53   1
    57    31    54   1
    58    31    55   1
    59    33    56   1
    60    34    57   1
    61    35    58   1
    62    36    59   1
    63    37    60   1
@<TRIPOS>SUBSTRUCTURE
     1  MOL      2

