@<TRIPOS>MOLECULE
2qbp_ligand_056
    60    63
SMALL
GAST_HUCK
****
This file was generated by PARSER (from files_GN.cpp)

@<TRIPOS>ATOM
      1 S1         46.8552   13.9762    3.9750 S.3         1 MOL      -0.0382
      2 C2         45.7743   15.3104    4.1253 C.2         1 MOL       0.0813
      3 C3         45.1543   15.4853    2.8807 C.2         1 MOL       0.1014
      4 C4         45.5210   14.5307    1.9124 C.2         1 MOL       0.0465
      5 C5         46.4972   13.6184    2.3372 C.2         1 MOL       0.0450
      6 C6         45.5649   16.0815    5.2795 C.2         1 MOL       0.0555
      7 O7         44.3365   16.5854    5.5610 O.co2       1 MOL      -0.5699
      8 O8         46.6228   16.5571    5.9820 O.co2       1 MOL      -0.5699
      9 C9         46.9977   12.5300    1.6189 C.ar        1 MOL      -0.0166
     10 C10        46.2026   11.3813    1.4537 C.ar        1 MOL      -0.0362
     11 C11        46.5977   10.3453    0.5839 C.ar        1 MOL       0.0383
     12 C12        47.8473   10.4256   -0.0713 C.ar        1 MOL      -0.0440
     13 C13        48.6845   11.5349    0.1578 C.ar        1 MOL      -0.0722
     14 C14        48.2551   12.5932    0.9856 C.ar        1 MOL      -0.0655
     15 BR19       44.7402   14.4822    0.2198 Br          1 MOL      -0.0668
     16 O20        44.3294   16.5503    2.6501 O.3         1 MOL      -0.3141
     17 C21        44.9710   17.7743    2.2198 C.3         1 MOL       0.1195
     18 C22        46.3549   18.0211    2.6764 C.2         1 MOL       0.0648
     19 O25        47.3511   17.1879    2.2932 O.co2       1 MOL      -0.5663
     20 O26        46.5857   18.8088    3.7530 O.co2       1 MOL      -0.5663
     21 N29        45.7143    9.3346    0.4161 N.pl3       1 MOL      -0.3201
     22 C30        45.0071    9.0027   -0.7955 C.3         1 MOL       0.0379
     23 C31        43.5002    9.0975   -0.4078 C.3         1 MOL      -0.0135
     24 C32        42.5327    8.8588   -1.5872 C.3         1 MOL       0.0314
     25 N33        42.8812    9.6642   -2.7301 N.am        1 MOL      -0.2365
     26 C34        44.2489    9.6455   -3.1898 C.3         1 MOL       0.0314
     27 C35        45.2543    9.9101   -2.0438 C.3         1 MOL      -0.0135
     28 S46        41.6535   10.1572   -3.7838 S.o2        1 MOL       0.0512
     29 O47        40.3101    9.3703   -3.4496 O.2         1 MOL      -0.1532
     30 O48        41.9716    9.6943   -5.2728 O.2         1 MOL      -0.1532
     31 C49        41.3041   11.9235   -3.7481 C.3         1 MOL       0.1181
     32 C50        42.5106   12.7085   -4.1126 C.ar        1 MOL      -0.0204
     33 C53        43.4135   13.1630   -3.1229 C.ar        1 MOL      -0.0587
     34 C54        44.5682   13.8854   -3.4790 C.ar        1 MOL      -0.0685
     35 C55        44.8343   14.1609   -4.8303 C.ar        1 MOL      -0.0687
     36 C56        43.9478   13.7155   -5.8252 C.ar        1 MOL      -0.0685
     37 C57        42.7942   12.9928   -5.4708 C.ar        1 MOL      -0.0587
     38 H1         45.2883   11.3277    1.9091 H           1 MOL       0.0516
     39 H2         48.1743    9.6588   -0.6685 H           1 MOL       0.0521
     40 H3         49.6118   11.5751   -0.2898 H           1 MOL       0.0585
     41 H4         48.8673   13.4065    1.1091 H           1 MOL       0.0520
     42 H5         44.3604   18.6003    2.5948 H           1 MOL       0.0780
     43 H6         44.9538   17.8258    1.1273 H           1 MOL       0.0780
     44 H7         45.1806    9.1673    1.2100 H           1 MOL       0.1756
     45 H8         45.2446    7.9628   -1.0582 H           1 MOL       0.0548
     46 H9         43.3030   10.1019   -0.0074 H           1 MOL       0.0303
     47 H10        43.2779    8.3791    0.3857 H           1 MOL       0.0303
     48 H11        41.5273    9.0950   -1.2271 H           1 MOL       0.0479
     49 H12        42.5491    7.8028   -1.8692 H           1 MOL       0.0479
     50 H13        44.4120   10.4039   -3.9591 H           1 MOL       0.0479
     51 H14        44.4530    8.6668   -3.6382 H           1 MOL       0.0479
     52 H15        46.2623    9.7386   -2.4314 H           1 MOL       0.0303
     53 H16        45.1768   10.9644   -1.7529 H           1 MOL       0.0303
     54 H17        40.9568   12.1966   -2.7503 H           1 MOL       0.0682
     55 H18        40.4902   12.1365   -4.4420 H           1 MOL       0.0682
     56 H19        43.2343   12.9652   -2.1327 H           1 MOL       0.0557
     57 H20        45.2133   14.2050   -2.7546 H           1 MOL       0.0599
     58 H21        45.6766   14.6854   -5.0886 H           1 MOL       0.0559
     59 H22        44.1460   13.9175   -6.8126 H           1 MOL       0.0599
     60 H23        42.1669   12.6739   -6.2110 H           1 MOL       0.0557
@<TRIPOS>BOND
     1     1     2   1
     2     1     5   1
     3     2     3   2
     4     2     6   1
     5     3     4   1
     6     3    16   1
     7     4     5   2
     8     4    15   1
     9     5     9   1
    10     6     7  ar
    11     6     8  ar
    12     9    10  ar
    13     9    14  ar
    14    10    11  ar
    15    11    12  ar
    16    11    21   1
    17    12    13  ar
    18    13    14  ar
    19    16    17   1
    20    17    18   1
    21    18    19  ar
    22    18    20  ar
    23    21    22   1
    24    22    23   1
    25    22    27   1
    26    23    24   1
    27    24    25   1
    28    25    26   1
    29    25    28  am
    30    26    27   1
    31    28    29   2
    32    28    30   2
    33    28    31   1
    34    31    32   1
    35    32    33  ar
    36    32    37  ar
    37    33    34  ar
    38    34    35  ar
    39    35    36  ar
    40    36    37  ar
    41    10    38   1
    42    12    39   1
    43    13    40   1
    44    14    41   1
    45    17    42   1
    46    17    43   1
    47    21    44   1
    48    22    45   1
    49    23    46   1
    50    23    47   1
    51    24    48   1
    52    24    49   1
    53    26    50   1
    54    26    51   1
    55    27    52   1
    56    27    53   1
    57    31    54   1
    58    31    55   1
    59    33    56   1
    60    34    57   1
    61    35    58   1
    62    36    59   1
    63    37    60   1
@<TRIPOS>SUBSTRUCTURE
     1  MOL      2

