@<TRIPOS>MOLECULE
2qbp_ligand_050
    60    63
SMALL
GAST_HUCK
****
This file was generated by PARSER (from files_GN.cpp)

@<TRIPOS>ATOM
      1 S1         44.3086   15.3802    1.1892 S.3         1 MOL      -0.0382
      2 C2         44.7071   16.0158    2.7317 C.2         1 MOL       0.0813
      3 C3         45.5032   15.0425    3.3622 C.2         1 MOL       0.1014
      4 C4         45.6983   13.8686    2.6116 C.2         1 MOL       0.0465
      5 C5         45.0835   13.8489    1.3457 C.2         1 MOL       0.0450
      6 C6         44.2435   17.2351    3.2501 C.2         1 MOL       0.0555
      7 O7         43.9630   18.2620    2.4164 O.co2       1 MOL      -0.5699
      8 O8         43.7931   17.3080    4.5212 O.co2       1 MOL      -0.5699
      9 C9         44.9879   12.8147    0.3737 C.ar        1 MOL      -0.0166
     10 C10        45.8649   11.7025    0.3389 C.ar        1 MOL      -0.0362
     11 C11        45.6470   10.5989   -0.5142 C.ar        1 MOL       0.0383
     12 C12        44.5592   10.6441   -1.4146 C.ar        1 MOL      -0.0440
     13 C13        43.7219   11.7725   -1.4642 C.ar        1 MOL      -0.0722
     14 C14        43.9488   12.8487   -0.5959 C.ar        1 MOL      -0.0655
     15 BR19       46.6239   12.4444    3.3929 Br          1 MOL      -0.0668
     16 O20        46.0544   15.2552    4.5987 O.3         1 MOL      -0.3141
     17 C21        47.3437   15.9236    4.5687 C.3         1 MOL       0.1195
     18 C22        47.2705   17.2326    5.2583 C.2         1 MOL       0.0648
     19 O25        48.4126   17.8688    5.5866 O.co2       1 MOL      -0.5663
     20 O26        46.0936   17.9167    5.3716 O.co2       1 MOL      -0.5663
     21 N29        46.4180    9.4848   -0.5805 N.pl3       1 MOL      -0.3201
     22 C30        47.7977    9.3314   -0.2166 C.3         1 MOL       0.0379
     23 C31        47.9532    8.7896    1.2382 C.3         1 MOL      -0.0135
     24 C32        47.5450    7.3065    1.3714 C.3         1 MOL       0.0314
     25 N33        48.1414    6.4673    0.3573 N.am        1 MOL      -0.2365
     26 C34        48.0502    6.8889   -1.0265 C.3         1 MOL       0.0314
     27 C35        48.4928    8.3654   -1.2097 C.3         1 MOL      -0.0135
     28 S46        48.5200    4.8558    0.6897 S.o2        1 MOL       0.0512
     29 O47        47.9215    3.9105   -0.4451 O.2         1 MOL      -0.1532
     30 O48        47.7940    4.3269    2.0133 O.2         1 MOL      -0.1532
     31 C49        50.2914    4.5376    0.8200 C.3         1 MOL       0.1181
     32 C50        50.9378    5.6352    1.5742 C.ar        1 MOL      -0.0204
     33 C53        51.1837    6.8782    0.9448 C.ar        1 MOL      -0.0587
     34 C54        51.6720    7.9696    1.6826 C.ar        1 MOL      -0.0685
     35 C55        51.9812    7.8188    3.0430 C.ar        1 MOL      -0.0687
     36 C56        51.7770    6.5773    3.6738 C.ar        1 MOL      -0.0685
     37 C57        51.2416    5.4952    2.9480 C.ar        1 MOL      -0.0587
     38 H1         46.6651   11.6879    0.9607 H           1 MOL       0.0516
     39 H2         44.3740    9.8730   -2.0643 H           1 MOL       0.0521
     40 H3         42.9566   11.8125   -2.1513 H           1 MOL       0.0585
     41 H4         43.3188   13.6500   -0.6596 H           1 MOL       0.0520
     42 H5         47.7555   16.0899    3.5567 H           1 MOL       0.0780
     43 H6         48.0511   15.2911    5.1207 H           1 MOL       0.0780
     44 H7         46.0045    8.7009   -0.9727 H           1 MOL       0.1756
     45 H8         48.3132   10.2894   -0.2811 H           1 MOL       0.0548
     46 H9         47.3581    9.3942    1.9303 H           1 MOL       0.0303
     47 H10        49.0015    8.8909    1.5394 H           1 MOL       0.0303
     48 H11        46.4557    7.2138    1.3042 H           1 MOL       0.0479
     49 H12        47.8424    6.9676    2.3713 H           1 MOL       0.0479
     50 H13        47.0133    6.7684   -1.3600 H           1 MOL       0.0479
     51 H14        48.6800    6.2725   -1.6784 H           1 MOL       0.0479
     52 H15        49.5734    8.4313   -1.0663 H           1 MOL       0.0303
     53 H16        48.2829    8.6839   -2.2368 H           1 MOL       0.0303
     54 H17        50.7097    4.4687   -0.1882 H           1 MOL       0.0682
     55 H18        50.4459    3.5746    1.3077 H           1 MOL       0.0682
     56 H19        50.9767    7.0029   -0.0452 H           1 MOL       0.0557
     57 H20        51.7904    8.8771    1.2296 H           1 MOL       0.0599
     58 H21        52.3502    8.6080    3.5782 H           1 MOL       0.0559
     59 H22        52.0105    6.4622    4.6673 H           1 MOL       0.0599
     60 H23        51.0701    4.6102    3.4302 H           1 MOL       0.0557
@<TRIPOS>BOND
     1     1     2   1
     2     1     5   1
     3     2     3   2
     4     2     6   1
     5     3     4   1
     6     3    16   1
     7     4     5   2
     8     4    15   1
     9     5     9   1
    10     6     7  ar
    11     6     8  ar
    12     9    10  ar
    13     9    14  ar
    14    10    11  ar
    15    11    12  ar
    16    11    21   1
    17    12    13  ar
    18    13    14  ar
    19    16    17   1
    20    17    18   1
    21    18    19  ar
    22    18    20  ar
    23    21    22   1
    24    22    23   1
    25    22    27   1
    26    23    24   1
    27    24    25   1
    28    25    26   1
    29    25    28  am
    30    26    27   1
    31    28    29   2
    32    28    30   2
    33    28    31   1
    34    31    32   1
    35    32    33  ar
    36    32    37  ar
    37    33    34  ar
    38    34    35  ar
    39    35    36  ar
    40    36    37  ar
    41    10    38   1
    42    12    39   1
    43    13    40   1
    44    14    41   1
    45    17    42   1
    46    17    43   1
    47    21    44   1
    48    22    45   1
    49    23    46   1
    50    23    47   1
    51    24    48   1
    52    24    49   1
    53    26    50   1
    54    26    51   1
    55    27    52   1
    56    27    53   1
    57    31    54   1
    58    31    55   1
    59    33    56   1
    60    34    57   1
    61    35    58   1
    62    36    59   1
    63    37    60   1
@<TRIPOS>SUBSTRUCTURE
     1  MOL      2

