@<TRIPOS>MOLECULE
2qbp_ligand_030
    60    63
SMALL
GAST_HUCK
****
This file was generated by PARSER (from files_GN.cpp)

@<TRIPOS>ATOM
      1 S1         43.8362   15.2396    1.8050 S.3         1 MOL      -0.0382
      2 C2         44.6000   15.9337    3.1844 C.2         1 MOL       0.0813
      3 C3         45.4967   14.9663    3.6735 C.2         1 MOL       0.1014
      4 C4         45.4967   13.7581    2.9495 C.2         1 MOL       0.0465
      5 C5         44.6017   13.6983    1.8645 C.2         1 MOL       0.0450
      6 C6         44.3087   17.2155    3.6678 C.2         1 MOL       0.0555
      7 O7         44.2425   18.2761    2.8184 O.co2       1 MOL      -0.5699
      8 O8         43.9954   17.4028    4.9729 O.co2       1 MOL      -0.5699
      9 C9         44.3148   12.6256    0.9906 C.ar        1 MOL      -0.0166
     10 C10        44.1924   12.8591   -0.4058 C.ar        1 MOL      -0.0362
     11 C11        43.9546   11.7940   -1.3094 C.ar        1 MOL       0.0383
     12 C12        43.8716   10.4798   -0.8037 C.ar        1 MOL      -0.0440
     13 C13        43.9224   10.2444    0.5792 C.ar        1 MOL      -0.0722
     14 C14        44.1223   11.3103    1.4677 C.ar        1 MOL      -0.0655
     15 BR19       46.7289   12.4231    3.3554 Br          1 MOL      -0.0668
     16 O20        46.3410   15.1682    4.7385 O.3         1 MOL      -0.3141
     17 C21        47.4435   16.0667    4.4849 C.3         1 MOL       0.1195
     18 C22        47.0635   17.4489    4.8084 C.2         1 MOL       0.0648
     19 O25        46.5195   17.7556    6.0059 O.co2       1 MOL      -0.5663
     20 O26        47.1598   18.4194    3.8790 O.co2       1 MOL      -0.5663
     21 N29        43.8004   11.9353   -2.6535 N.pl3       1 MOL      -0.3201
     22 C30        43.2566   13.0708   -3.3322 C.3         1 MOL       0.0379
     23 C31        44.3282   13.9933   -3.9874 C.3         1 MOL      -0.0135
     24 C32        43.6569   15.1048   -4.8360 C.3         1 MOL       0.0314
     25 N33        42.6691   14.5802   -5.7516 N.am        1 MOL      -0.2365
     26 C34        41.6787   13.6587   -5.2601 C.3         1 MOL       0.0314
     27 C35        42.3105   12.5189   -4.4323 C.3         1 MOL      -0.0135
     28 S46        42.2428   15.4999   -7.1109 S.o2        1 MOL       0.0512
     29 O47        41.6620   14.5040   -8.2072 O.2         1 MOL      -0.1532
     30 O48        43.5439   16.0733   -7.8320 O.2         1 MOL      -0.1532
     31 C49        41.0029   16.7686   -6.7735 C.3         1 MOL       0.1181
     32 C50        41.5853   18.1295   -6.8834 C.ar        1 MOL      -0.0204
     33 C53        41.9451   18.8569   -5.7289 C.ar        1 MOL      -0.0587
     34 C54        42.5355   20.1312   -5.8429 C.ar        1 MOL      -0.0685
     35 C55        42.7719   20.6840   -7.1123 C.ar        1 MOL      -0.0687
     36 C56        42.4195   19.9679   -8.2662 C.ar        1 MOL      -0.0685
     37 C57        41.8333   18.6924   -8.1549 C.ar        1 MOL      -0.0587
     38 H1         44.3226   13.7948   -0.7873 H           1 MOL       0.0516
     39 H2         43.7048    9.6793   -1.4256 H           1 MOL       0.0521
     40 H3         43.7941    9.2982    0.9481 H           1 MOL       0.0585
     41 H4         44.1124   11.1281    2.4724 H           1 MOL       0.0520
     42 H5         47.8194   15.9997    3.4585 H           1 MOL       0.0780
     43 H6         48.2645   15.7837    5.1430 H           1 MOL       0.0780
     44 H7         43.7734   11.1023   -3.1602 H           1 MOL       0.1756
     45 H8         42.6486   13.6751   -2.6457 H           1 MOL       0.0548
     46 H9         44.9844   13.3928   -4.6231 H           1 MOL       0.0303
     47 H10        44.9469   14.4462   -3.2077 H           1 MOL       0.0303
     48 H11        44.4523   15.6338   -5.3712 H           1 MOL       0.0479
     49 H12        43.1748   15.8238   -4.1691 H           1 MOL       0.0479
     50 H13        41.1210   13.1878   -6.0768 H           1 MOL       0.0479
     51 H14        40.9616   14.2013   -4.6329 H           1 MOL       0.0479
     52 H15        41.5157   11.9242   -3.9739 H           1 MOL       0.0303
     53 H16        42.8752   11.8700   -5.1104 H           1 MOL       0.0303
     54 H17        40.5968   16.6050   -5.7728 H           1 MOL       0.0682
     55 H18        40.1699   16.6514   -7.4735 H           1 MOL       0.0682
     56 H19        41.7881   18.4617   -4.7952 H           1 MOL       0.0557
     57 H20        42.7924   20.6503   -4.9999 H           1 MOL       0.0599
     58 H21        43.2002   21.6097   -7.1945 H           1 MOL       0.0559
     59 H22        42.5962   20.3697   -9.1936 H           1 MOL       0.0599
     60 H23        41.5956   18.1818   -9.0087 H           1 MOL       0.0557
@<TRIPOS>BOND
     1     1     2   1
     2     1     5   1
     3     2     3   2
     4     2     6   1
     5     3     4   1
     6     3    16   1
     7     4     5   2
     8     4    15   1
     9     5     9   1
    10     6     7  ar
    11     6     8  ar
    12     9    10  ar
    13     9    14  ar
    14    10    11  ar
    15    11    12  ar
    16    11    21   1
    17    12    13  ar
    18    13    14  ar
    19    16    17   1
    20    17    18   1
    21    18    19  ar
    22    18    20  ar
    23    21    22   1
    24    22    23   1
    25    22    27   1
    26    23    24   1
    27    24    25   1
    28    25    26   1
    29    25    28  am
    30    26    27   1
    31    28    29   2
    32    28    30   2
    33    28    31   1
    34    31    32   1
    35    32    33  ar
    36    32    37  ar
    37    33    34  ar
    38    34    35  ar
    39    35    36  ar
    40    36    37  ar
    41    10    38   1
    42    12    39   1
    43    13    40   1
    44    14    41   1
    45    17    42   1
    46    17    43   1
    47    21    44   1
    48    22    45   1
    49    23    46   1
    50    23    47   1
    51    24    48   1
    52    24    49   1
    53    26    50   1
    54    26    51   1
    55    27    52   1
    56    27    53   1
    57    31    54   1
    58    31    55   1
    59    33    56   1
    60    34    57   1
    61    35    58   1
    62    36    59   1
    63    37    60   1
@<TRIPOS>SUBSTRUCTURE
     1  MOL      2

